* NGSPICE file created from fft_top.ext - technology: scmos

* Black-box entry subcircuit for FILL abstract view
.subckt FILL gnd vdd
.ends

* Black-box entry subcircuit for AND2X2 abstract view
.subckt AND2X2 A B gnd Y vdd
.ends

* Black-box entry subcircuit for OAI21X1 abstract view
.subckt OAI21X1 A B C gnd Y vdd
.ends

* Black-box entry subcircuit for INVX1 abstract view
.subckt INVX1 A gnd Y vdd
.ends

* Black-box entry subcircuit for NAND2X1 abstract view
.subckt NAND2X1 A B gnd Y vdd
.ends

* Black-box entry subcircuit for AOI22X1 abstract view
.subckt AOI22X1 A B C D gnd Y vdd
.ends

* Black-box entry subcircuit for NAND3X1 abstract view
.subckt NAND3X1 A B C gnd Y vdd
.ends

* Black-box entry subcircuit for OAI22X1 abstract view
.subckt OAI22X1 A B C D gnd Y vdd
.ends

* Black-box entry subcircuit for INVX2 abstract view
.subckt INVX2 A gnd Y vdd
.ends

* Black-box entry subcircuit for DFFPOSX1 abstract view
.subckt DFFPOSX1 Q CLK D gnd vdd
.ends

* Black-box entry subcircuit for OR2X2 abstract view
.subckt OR2X2 A B gnd Y vdd
.ends

* Black-box entry subcircuit for XNOR2X1 abstract view
.subckt XNOR2X1 A B gnd Y vdd
.ends

* Black-box entry subcircuit for INVX8 abstract view
.subckt INVX8 A gnd Y vdd
.ends

* Black-box entry subcircuit for BUFX4 abstract view
.subckt BUFX4 A gnd Y vdd
.ends

* Black-box entry subcircuit for NOR3X1 abstract view
.subckt NOR3X1 A B C gnd Y vdd
.ends

* Black-box entry subcircuit for NOR2X1 abstract view
.subckt NOR2X1 A B gnd Y vdd
.ends

* Black-box entry subcircuit for XOR2X1 abstract view
.subckt XOR2X1 A B gnd Y vdd
.ends

* Black-box entry subcircuit for CLKBUF1 abstract view
.subckt CLKBUF1 A gnd Y vdd
.ends

* Black-box entry subcircuit for AOI21X1 abstract view
.subckt AOI21X1 A B C gnd Y vdd
.ends

* Black-box entry subcircuit for BUFX2 abstract view
.subckt BUFX2 A gnd Y vdd
.ends

* Black-box entry subcircuit for DFFSR abstract view
.subckt DFFSR Q CLK R S D gnd vdd
.ends

.subckt fft_top vdd gnd clk reset start x0[0] x0[1] x0[2] x0[3] x0[4] x0[5] x0[6]
+ x0[7] x1[0] x1[1] x1[2] x1[3] x1[4] x1[5] x1[6] x1[7] x2[0] x2[1] x2[2] x2[3] x2[4]
+ x2[5] x2[6] x2[7] x3[0] x3[1] x3[2] x3[3] x3[4] x3[5] x3[6] x3[7] X0_mag[0] X0_mag[1]
+ X0_mag[2] X0_mag[3] X0_mag[4] X0_mag[5] X0_mag[6] X0_mag[7] X1_mag[0] X1_mag[1]
+ X1_mag[2] X1_mag[3] X1_mag[4] X1_mag[5] X1_mag[6] X1_mag[7] X2_mag[0] X2_mag[1]
+ X2_mag[2] X2_mag[3] X2_mag[4] X2_mag[5] X2_mag[6] X2_mag[7] X3_mag[0] X3_mag[1]
+ X3_mag[2] X3_mag[3] X3_mag[4] X3_mag[5] X3_mag[6] X3_mag[7] done
XFILL_22_0_2 gnd vdd FILL
XFILL_5_1_2 gnd vdd FILL
XAND2X2_5 AND2X2_5/A AND2X2_5/B gnd INVX1_50/A vdd AND2X2
XOAI21X1_360 INVX2_43/A NOR2X1_221/Y AND2X2_45/Y gnd AOI22X1_48/B vdd OAI21X1
XOAI21X1_371 OAI21X1_371/A OAI21X1_371/B NAND2X1_410/Y gnd NAND3X1_335/C vdd OAI21X1
XOAI21X1_382 AOI22X1_51/Y XNOR2X1_49/A AOI21X1_154/Y gnd OAI21X1_382/Y vdd OAI21X1
XFILL_13_0_2 gnd vdd FILL
XINVX1_221 INVX1_221/A gnd INVX1_221/Y vdd INVX1
XINVX1_232 gnd gnd INVX1_232/Y vdd INVX1
XOAI21X1_190 gnd INVX2_12/Y NOR2X1_119/Y gnd AOI22X1_7/D vdd OAI21X1
XINVX1_243 INVX1_243/A gnd INVX1_243/Y vdd INVX1
XINVX1_210 INVX1_210/A gnd INVX1_210/Y vdd INVX1
XNAND2X1_32 x2[0] INVX1_32/Y gnd AOI21X1_6/B vdd NAND2X1
XNAND2X1_21 OAI21X1_34/C NAND2X1_21/B gnd INVX1_40/A vdd NAND2X1
XINVX1_287 INVX1_287/A gnd INVX1_287/Y vdd INVX1
XNAND2X1_43 INVX1_273/A OR2X2_4/B gnd OAI21X1_77/C vdd NAND2X1
XINVX1_276 AND2X2_43/Y gnd INVX1_276/Y vdd INVX1
XNAND2X1_10 OR2X2_3/B BUFX4_12/Y gnd OAI21X1_11/C vdd NAND2X1
XINVX1_298 INVX1_298/A gnd INVX1_298/Y vdd INVX1
XINVX1_254 INVX1_254/A gnd INVX1_254/Y vdd INVX1
XINVX1_265 INVX1_265/A gnd INVX1_265/Y vdd INVX1
XNAND2X1_76 INVX1_116/A INVX1_80/Y gnd AND2X2_12/A vdd NAND2X1
XNAND2X1_65 NAND2X1_65/A NAND2X1_65/B gnd NOR2X1_95/B vdd NAND2X1
XNAND2X1_98 INVX2_23/A BUFX4_12/Y gnd NAND2X1_98/Y vdd NAND2X1
XNAND2X1_54 BUFX4_9/Y INVX1_63/A gnd OAI21X1_91/C vdd NAND2X1
XNAND2X1_87 INVX1_54/A INVX1_83/Y gnd NAND2X1_87/Y vdd NAND2X1
XAOI22X1_30 AOI22X1_30/A INVX1_248/A AOI22X1_31/C AOI22X1_31/D gnd AOI22X1_30/Y vdd
+ AOI22X1
XAOI22X1_41 AOI22X1_37/A AOI22X1_37/B AOI22X1_41/C AOI22X1_41/D gnd AOI22X1_41/Y vdd
+ AOI22X1
XAOI22X1_52 INVX2_36/A INVX1_99/A INVX2_37/A INVX1_98/A gnd AOI22X1_52/Y vdd AOI22X1
XNAND3X1_218 XNOR2X1_40/Y NAND3X1_212/Y NAND3X1_245/C gnd NAND3X1_218/Y vdd NAND3X1
XNAND3X1_229 NAND3X1_232/A NOR2X1_194/Y NAND3X1_232/B gnd NAND3X1_230/B vdd NAND3X1
XNAND3X1_207 INVX1_131/A INVX2_33/A INVX1_242/A gnd INVX1_261/A vdd NAND3X1
XOAI22X1_3 BUFX4_3/Y INVX1_41/Y AND2X2_3/Y OAI22X1_3/D gnd OAI22X1_3/Y vdd OAI22X1
XNAND2X1_409 OR2X2_32/A INVX1_296/A gnd AOI22X1_48/C vdd NAND2X1
XFILL_20_1_0 gnd vdd FILL
XINVX2_34 INVX2_34/A gnd INVX2_34/Y vdd INVX2
XINVX2_23 INVX2_23/A gnd INVX2_23/Y vdd INVX2
XINVX2_12 gnd gnd INVX2_12/Y vdd INVX2
XFILL_3_2_0 gnd vdd FILL
XOAI21X1_19 BUFX4_1/Y INVX2_3/Y OAI21X1_21/C gnd OAI21X1_19/Y vdd OAI21X1
XFILL_11_1_0 gnd vdd FILL
XFILL_19_2_0 gnd vdd FILL
XDFFPOSX1_103 INVX1_29/A CLKBUF1_1/Y OAI21X1_23/Y gnd vdd DFFPOSX1
XFILL_12_3 gnd vdd FILL
XDFFPOSX1_114 BUFX2_10/A DFFSR_1/CLK NOR2X1_132/Y gnd vdd DFFPOSX1
XDFFPOSX1_125 BUFX2_21/A CLKBUF1_6/Y NOR2X1_131/Y gnd vdd DFFPOSX1
XNAND2X1_239 NAND3X1_87/A NAND3X1_87/Y gnd INVX1_217/A vdd NAND2X1
XNAND2X1_217 INVX1_201/Y NOR2X1_148/Y gnd NOR3X1_7/A vdd NAND2X1
XNAND2X1_228 INVX1_219/A NAND3X1_92/B gnd NAND2X1_228/Y vdd NAND2X1
XDFFPOSX1_136 BUFX2_32/A CLKBUF1_6/Y NAND2X1_445/Y gnd vdd DFFPOSX1
XNAND2X1_206 AOI21X1_75/B OR2X2_16/Y gnd NAND2X1_207/B vdd NAND2X1
XOR2X2_4 OR2X2_4/A OR2X2_4/B gnd OR2X2_4/Y vdd OR2X2
XOR2X2_33 OR2X2_33/A OR2X2_33/B gnd OR2X2_33/Y vdd OR2X2
XOR2X2_11 OR2X2_11/A OR2X2_11/B gnd OR2X2_11/Y vdd OR2X2
XOR2X2_22 OR2X2_22/A OR2X2_22/B gnd OR2X2_22/Y vdd OR2X2
XXNOR2X1_6 AOI21X1_4/B AND2X2_2/B gnd XNOR2X1_6/Y vdd XNOR2X1
XFILL_0_0_0 gnd vdd FILL
XINVX1_6 x1[2] gnd INVX1_6/Y vdd INVX1
XFILL_8_1_0 gnd vdd FILL
XFILL_16_0_0 gnd vdd FILL
XOAI21X1_361 INVX2_43/A NOR2X1_221/Y INVX1_296/Y gnd AOI22X1_49/C vdd OAI21X1
XAND2X2_6 OR2X2_4/B XOR2X1_5/A gnd AND2X2_6/Y vdd AND2X2
XOAI21X1_350 INVX2_37/Y INVX1_275/Y NOR2X1_218/Y gnd NAND3X1_278/B vdd OAI21X1
XOAI21X1_372 INVX1_295/A AOI21X1_149/Y NAND3X1_333/B gnd OAI21X1_372/Y vdd OAI21X1
XOAI21X1_383 OAI21X1_383/A NOR2X1_225/Y INVX1_307/Y gnd OAI21X1_383/Y vdd OAI21X1
XINVX1_277 INVX1_277/A gnd INVX1_277/Y vdd INVX1
XAOI22X1_1 BUFX4_14/Y INVX1_52/Y AOI22X1_1/C OR2X2_2/Y gnd AOI22X1_1/Y vdd AOI22X1
XINVX1_266 INVX1_266/A gnd INVX1_266/Y vdd INVX1
XINVX1_222 XOR2X1_16/Y gnd INVX1_222/Y vdd INVX1
XINVX1_244 OR2X2_22/Y gnd INVX1_244/Y vdd INVX1
XINVX1_233 INVX1_233/A gnd INVX1_233/Y vdd INVX1
XOAI21X1_191 INVX1_180/A AND2X2_22/Y INVX1_163/A gnd AOI22X1_8/B vdd OAI21X1
XINVX1_255 INVX1_255/A gnd INVX1_255/Y vdd INVX1
XINVX1_211 INVX1_211/A gnd INVX1_211/Y vdd INVX1
XOAI21X1_180 INVX1_141/Y INVX1_150/Y AND2X2_20/B gnd INVX1_155/A vdd OAI21X1
XINVX1_200 INVX1_200/A gnd INVX1_200/Y vdd INVX1
XNAND2X1_33 AOI21X1_8/Y OAI21X1_48/Y gnd NAND2X1_33/Y vdd NAND2X1
XINVX1_288 INVX1_288/A gnd INVX1_288/Y vdd INVX1
XNAND2X1_11 NOR2X1_5/Y NOR2X1_9/Y gnd NAND2X1_11/Y vdd NAND2X1
XNAND2X1_44 INVX2_2/Y NOR2X1_58/Y gnd NAND2X1_45/B vdd NAND2X1
XINVX1_299 INVX1_99/A gnd INVX1_299/Y vdd INVX1
XNAND2X1_77 INVX1_80/A INVX1_116/Y gnd NAND3X1_9/C vdd NAND2X1
XNAND2X1_22 INVX1_112/A BUFX4_16/Y gnd NAND2X1_22/Y vdd NAND2X1
XNAND2X1_66 INVX1_112/A INVX1_111/Y gnd NAND2X1_68/A vdd NAND2X1
XNAND2X1_55 BUFX4_5/Y INVX1_65/A gnd NAND2X1_55/Y vdd NAND2X1
XNAND2X1_99 INVX1_193/A BUFX4_12/Y gnd NAND2X1_99/Y vdd NAND2X1
XNAND2X1_88 INVX1_152/A BUFX4_10/Y gnd NAND2X1_88/Y vdd NAND2X1
XAOI22X1_53 AND2X2_44/Y AOI22X1_53/B XOR2X1_21/B XOR2X1_21/A gnd AOI22X1_53/Y vdd
+ AOI22X1
XAOI22X1_42 INVX2_36/A NOR2X1_206/Y INVX1_274/A AOI22X1_42/D gnd OR2X2_29/B vdd AOI22X1
XAOI22X1_31 AOI22X1_31/A AOI22X1_31/B AOI22X1_31/C AOI22X1_31/D gnd OR2X2_24/A vdd
+ AOI22X1
XAOI22X1_20 AOI22X1_20/A NAND3X1_86/Y INVX1_218/A AOI22X1_18/A gnd AOI22X1_20/Y vdd
+ AOI22X1
XNAND3X1_219 XNOR2X1_39/Y NAND3X1_214/Y NAND3X1_215/Y gnd NAND3X1_219/Y vdd NAND3X1
XNAND3X1_208 AND2X2_38/Y INVX1_261/A INVX1_260/Y gnd AND2X2_39/B vdd NAND3X1
XOAI22X1_4 BUFX4_3/Y INVX1_47/Y OAI22X1_4/C OAI22X1_4/D gnd OAI22X1_4/Y vdd OAI22X1
XFILL_20_1_1 gnd vdd FILL
XINVX2_35 INVX2_35/A gnd INVX2_35/Y vdd INVX2
XINVX2_24 NOR3X1_7/A gnd INVX2_24/Y vdd INVX2
XINVX2_13 INVX2_13/A gnd INVX2_13/Y vdd INVX2
XFILL_3_2_1 gnd vdd FILL
XFILL_11_1_1 gnd vdd FILL
XFILL_19_2_1 gnd vdd FILL
XDFFPOSX1_104 INVX1_30/A CLKBUF1_4/Y OAI21X1_24/Y gnd vdd DFFPOSX1
XDFFPOSX1_115 BUFX2_11/A CLKBUF1_10/Y XNOR2X1_31/Y gnd vdd DFFPOSX1
XDFFPOSX1_126 BUFX2_22/A CLKBUF1_6/Y XNOR2X1_22/Y gnd vdd DFFPOSX1
XNAND2X1_218 INVX2_19/A INVX1_104/A gnd INVX1_205/A vdd NAND2X1
XNAND2X1_229 NAND2X1_229/A OR2X2_20/B gnd INVX1_209/A vdd NAND2X1
XNAND2X1_207 INVX1_196/A NAND2X1_207/B gnd AOI21X1_72/B vdd NAND2X1
XFILL_10_1 gnd vdd FILL
XOR2X2_34 OR2X2_34/A OR2X2_34/B gnd OR2X2_34/Y vdd OR2X2
XOR2X2_23 OR2X2_23/A OR2X2_23/B gnd OR2X2_23/Y vdd OR2X2
XOR2X2_5 OR2X2_5/A OR2X2_5/B gnd OR2X2_5/Y vdd OR2X2
XOR2X2_12 OR2X2_12/A OR2X2_12/B gnd OR2X2_12/Y vdd OR2X2
XXNOR2X1_7 XNOR2X1_7/A AND2X2_2/A gnd XNOR2X1_7/Y vdd XNOR2X1
XFILL_0_0_1 gnd vdd FILL
XINVX1_7 x3[2] gnd INVX1_7/Y vdd INVX1
XFILL_8_1_1 gnd vdd FILL
XFILL_16_0_1 gnd vdd FILL
XAND2X2_7 AND2X2_7/A AND2X2_7/B gnd AND2X2_7/Y vdd AND2X2
XOAI21X1_351 INVX2_42/Y INVX1_289/Y NAND2X1_391/Y gnd NAND3X1_279/B vdd OAI21X1
XOAI21X1_373 INVX2_43/A NOR2X1_221/Y INVX2_41/A gnd OAI21X1_373/Y vdd OAI21X1
XOAI21X1_362 INVX2_43/A NOR2X1_221/Y OAI21X1_362/C gnd AOI22X1_49/B vdd OAI21X1
XOAI21X1_384 INVX2_43/A OAI21X1_362/C OR2X2_32/Y gnd XOR2X1_25/A vdd OAI21X1
XOAI21X1_340 INVX2_37/A INVX1_275/Y INVX1_278/A gnd NAND3X1_273/A vdd OAI21X1
XNAND2X1_390 INVX2_37/A INVX1_96/A gnd INVX1_290/A vdd NAND2X1
XAOI22X1_2 BUFX4_11/Y AOI22X1_2/B AOI22X1_2/C AOI22X1_2/D gnd AOI22X1_2/Y vdd AOI22X1
XINVX1_289 INVX1_289/A gnd INVX1_289/Y vdd INVX1
XINVX1_278 INVX1_278/A gnd INVX1_278/Y vdd INVX1
XINVX1_212 INVX1_212/A gnd INVX1_212/Y vdd INVX1
XINVX1_245 INVX1_245/A gnd INVX1_245/Y vdd INVX1
XINVX1_267 INVX1_267/A gnd INVX1_267/Y vdd INVX1
XINVX1_256 INVX1_256/A gnd INVX1_256/Y vdd INVX1
XINVX1_223 XOR2X1_14/Y gnd INVX1_223/Y vdd INVX1
XINVX1_234 INVX1_234/A gnd INVX1_234/Y vdd INVX1
XOAI21X1_192 INVX1_180/A AND2X2_22/Y INVX1_164/Y gnd AOI22X1_8/C vdd OAI21X1
XOAI21X1_170 INVX2_8/Y INVX1_142/Y XNOR2X1_19/Y gnd AND2X2_20/A vdd OAI21X1
XINVX1_201 INVX1_201/A gnd INVX1_201/Y vdd INVX1
XOAI21X1_181 INVX2_9/Y INVX2_13/A INVX1_146/A gnd NAND2X1_140/A vdd OAI21X1
XNAND2X1_45 NAND2X1_45/A NAND2X1_45/B gnd NAND2X1_45/Y vdd NAND2X1
XNAND2X1_12 INVX1_79/A NOR2X1_13/B gnd OAI21X1_13/C vdd NAND2X1
XNAND2X1_67 INVX1_111/A INVX1_112/Y gnd NAND2X1_68/B vdd NAND2X1
XNAND2X1_34 INVX1_110/A BUFX4_15/Y gnd NAND2X1_34/Y vdd NAND2X1
XNAND2X1_23 INVX1_114/A BUFX4_16/Y gnd OAI21X1_37/C vdd NAND2X1
XNAND2X1_56 BUFX4_1/Y INVX1_66/A gnd OAI21X1_93/C vdd NAND2X1
XNAND2X1_89 NOR2X1_75/Y NOR2X1_85/Y gnd INVX1_121/A vdd NAND2X1
XNAND2X1_78 INVX2_9/A BUFX4_11/Y gnd NAND2X1_78/Y vdd NAND2X1
XAOI22X1_43 AOI22X1_46/A AOI22X1_46/B AOI22X1_43/C AOI22X1_43/D gnd AOI22X1_43/Y vdd
+ AOI22X1
XAOI22X1_54 NOR2X1_219/A AOI22X1_53/B AOI22X1_54/C OR2X2_34/A gnd AOI22X1_54/Y vdd
+ AOI22X1
XAOI22X1_32 INVX1_248/A AOI22X1_30/A AOI22X1_29/C AOI22X1_32/D gnd AOI22X1_32/Y vdd
+ AOI22X1
XAOI22X1_21 INVX2_21/A INVX1_193/A INVX1_187/A AOI22X1_21/D gnd INVX2_25/A vdd AOI22X1
XAOI22X1_10 INVX2_10/A INVX1_152/A INVX1_139/A INVX1_153/A gnd INVX1_170/A vdd AOI22X1
XNAND3X1_209 NAND3X1_203/Y NAND3X1_206/Y AND2X2_39/Y gnd NAND3X1_245/C vdd NAND3X1
XOAI22X1_5 BUFX4_3/Y INVX1_75/Y OAI22X1_5/C INVX1_76/Y gnd OAI22X1_5/Y vdd OAI22X1
XFILL_20_1_2 gnd vdd FILL
XINVX2_36 INVX2_36/A gnd INVX2_36/Y vdd INVX2
XINVX2_25 INVX2_25/A gnd INVX2_25/Y vdd INVX2
XINVX2_14 INVX2_14/A gnd INVX2_14/Y vdd INVX2
XFILL_3_2_2 gnd vdd FILL
XFILL_11_1_2 gnd vdd FILL
XFILL_19_2_2 gnd vdd FILL
XDFFPOSX1_116 BUFX2_12/A CLKBUF1_10/Y NOR2X1_141/Y gnd vdd DFFPOSX1
XDFFPOSX1_127 BUFX2_23/A CLKBUF1_6/Y XNOR2X1_24/Y gnd vdd DFFPOSX1
XDFFPOSX1_105 BUFX2_1/A DFFSR_1/CLK NOR2X1_165/Y gnd vdd DFFPOSX1
XNAND2X1_219 NAND3X1_87/A NAND3X1_87/B gnd OAI21X1_235/C vdd NAND2X1
XNAND2X1_208 NAND2X1_207/B INVX1_196/Y gnd NAND3X1_84/C vdd NAND2X1
XINVX8_1 BUFX4_3/Y gnd INVX8_1/Y vdd INVX8
XBUFX4_10 INVX8_1/Y gnd BUFX4_10/Y vdd BUFX4
XFILL_10_2 gnd vdd FILL
XXNOR2X1_8 XNOR2X1_8/A INVX1_60/A gnd XNOR2X1_8/Y vdd XNOR2X1
XOR2X2_24 OR2X2_24/A OR2X2_24/B gnd OR2X2_24/Y vdd OR2X2
XOR2X2_13 OR2X2_13/A OR2X2_13/B gnd OR2X2_13/Y vdd OR2X2
XOR2X2_6 BUFX4_4/Y OR2X2_6/B gnd OR2X2_6/Y vdd OR2X2
XFILL_0_0_2 gnd vdd FILL
XINVX1_8 INVX1_8/A gnd INVX1_8/Y vdd INVX1
XFILL_8_1_2 gnd vdd FILL
XFILL_16_0_2 gnd vdd FILL
XFILL_9_1 gnd vdd FILL
XOAI21X1_341 INVX2_35/Y INVX1_279/Y NAND2X1_371/Y gnd OAI21X1_341/Y vdd OAI21X1
XOAI21X1_330 AOI22X1_37/Y AOI22X1_38/Y OAI21X1_330/C gnd OAI21X1_330/Y vdd OAI21X1
XOAI21X1_363 NOR3X1_12/Y AOI21X1_142/Y INVX1_297/A gnd OAI21X1_363/Y vdd OAI21X1
XOAI21X1_352 AOI22X1_43/Y AOI22X1_44/Y OAI21X1_355/C gnd INVX1_305/A vdd OAI21X1
XOAI21X1_374 INVX2_39/Y OAI21X1_373/Y OAI21X1_374/C gnd XOR2X1_22/B vdd OAI21X1
XAND2X2_8 AND2X2_8/A AND2X2_8/B gnd AND2X2_8/Y vdd AND2X2
XOAI21X1_385 AOI21X1_158/Y OAI21X1_385/B XOR2X1_25/Y gnd NAND3X1_356/C vdd OAI21X1
XNAND2X1_380 NAND2X1_380/A INVX1_282/Y gnd NAND2X1_380/Y vdd NAND2X1
XNAND2X1_391 NAND2X1_391/A NAND3X1_278/B gnd NAND2X1_391/Y vdd NAND2X1
XAOI22X1_3 BUFX4_10/Y AOI22X1_3/B AOI22X1_3/C AOI22X1_3/D gnd AOI22X1_3/Y vdd AOI22X1
XOAI21X1_171 INVX2_8/Y INVX1_142/Y NOR2X1_111/Y gnd AND2X2_19/B vdd OAI21X1
XOAI21X1_182 INVX1_139/A INVX1_152/Y OAI21X1_182/C gnd NAND3X1_20/C vdd OAI21X1
XOAI21X1_160 NOR2X1_99/Y AND2X2_17/Y BUFX4_5/Y gnd AND2X2_18/A vdd OAI21X1
XINVX1_279 INVX1_279/A gnd INVX1_279/Y vdd INVX1
XINVX1_224 INVX1_224/A gnd INVX1_224/Y vdd INVX1
XINVX1_235 INVX1_235/A gnd INVX1_235/Y vdd INVX1
XINVX1_246 INVX1_246/A gnd INVX1_246/Y vdd INVX1
XINVX1_257 INVX1_257/A gnd INVX1_257/Y vdd INVX1
XINVX1_268 INVX1_268/A gnd INVX1_268/Y vdd INVX1
XINVX1_213 INVX1_107/A gnd INVX1_213/Y vdd INVX1
XOAI21X1_193 NOR3X1_2/B NOR3X1_2/C NOR3X1_2/A gnd AOI21X1_56/B vdd OAI21X1
XINVX1_202 INVX1_202/A gnd INVX1_202/Y vdd INVX1
XNAND2X1_24 INVX1_60/A INVX1_45/A gnd NAND2X1_24/Y vdd NAND2X1
XNAND2X1_13 BUFX4_8/Y OAI21X1_13/C gnd OAI22X1_2/D vdd NAND2X1
XNAND2X1_46 INVX2_39/A OR2X2_4/B gnd OAI21X1_79/C vdd NAND2X1
XNAND2X1_35 INVX1_111/A BUFX4_15/Y gnd OAI21X1_62/C vdd NAND2X1
XNAND2X1_79 AND2X2_12/A NAND3X1_9/C gnd NOR2X1_66/B vdd NAND2X1
XNAND2X1_68 NAND2X1_68/A NAND2X1_68/B gnd NAND2X1_68/Y vdd NAND2X1
XNAND2X1_57 BUFX4_1/Y INVX1_67/A gnd NAND2X1_57/Y vdd NAND2X1
XAOI22X1_44 AOI22X1_46/D INVX1_304/A AOI22X1_44/C OR2X2_31/Y gnd AOI22X1_44/Y vdd
+ AOI22X1
XNOR3X1_1 INVX1_29/A NOR3X1_1/B NOR3X1_1/C gnd OR2X2_4/A vdd NOR3X1
XAOI22X1_33 gnd gnd gnd gnd gnd NOR3X1_8/A vdd AOI22X1
XAOI22X1_11 AOI22X1_11/A AOI22X1_11/B AOI22X1_11/C AOI22X1_11/D gnd AOI22X1_11/Y vdd
+ AOI22X1
XAOI22X1_22 NAND3X1_99/Y AOI22X1_22/B AOI22X1_22/C AOI22X1_22/D gnd NOR3X1_7/B vdd
+ AOI22X1
XFILL_23_1_0 gnd vdd FILL
XOAI22X1_6 BUFX4_3/Y INVX1_80/Y OAI22X1_6/C OAI22X1_6/D gnd OAI22X1_6/Y vdd OAI22X1
XFILL_6_2_0 gnd vdd FILL
XFILL_14_1_0 gnd vdd FILL
XINVX2_26 INVX2_26/A gnd INVX2_26/Y vdd INVX2
XINVX2_15 INVX2_15/A gnd INVX2_15/Y vdd INVX2
XINVX2_37 INVX2_37/A gnd INVX2_37/Y vdd INVX2
XDFFPOSX1_117 BUFX2_13/A CLKBUF1_4/Y NOR2X1_162/Y gnd vdd DFFPOSX1
XDFFPOSX1_128 BUFX2_24/A CLKBUF1_6/Y NAND2X1_189/Y gnd vdd DFFPOSX1
XDFFPOSX1_106 BUFX2_2/A DFFSR_1/CLK NOR2X1_163/Y gnd vdd DFFPOSX1
XNAND2X1_209 INVX1_196/A XOR2X1_12/Y gnd NAND3X1_84/B vdd NAND2X1
XNOR2X1_220 INVX1_293/Y AOI22X1_46/B gnd INVX1_294/A vdd NOR2X1
XFILL_3_0_0 gnd vdd FILL
XBUFX4_11 INVX8_1/Y gnd BUFX4_11/Y vdd BUFX4
XFILL_19_0_0 gnd vdd FILL
XNAND3X1_360 AOI21X1_163/Y NAND3X1_360/B NAND3X1_360/C gnd NAND3X1_360/Y vdd NAND3X1
XOR2X2_14 OR2X2_14/A XOR2X1_9/A gnd OR2X2_14/Y vdd OR2X2
XFILL_10_3 gnd vdd FILL
XXNOR2X1_9 XNOR2X1_9/A INVX1_53/A gnd XNOR2X1_9/Y vdd XNOR2X1
XOR2X2_7 BUFX4_7/Y DFFSR_1/Q gnd OR2X2_7/Y vdd OR2X2
XOR2X2_25 OR2X2_25/A OR2X2_25/B gnd OR2X2_25/Y vdd OR2X2
XINVX1_9 INVX1_9/A gnd INVX1_9/Y vdd INVX1
XFILL_9_2 gnd vdd FILL
XNAND3X1_190 NAND3X1_194/A NAND3X1_190/B NAND3X1_189/Y gnd NAND2X1_312/A vdd NAND3X1
XOAI21X1_364 NOR3X1_12/B NOR3X1_12/C INVX2_42/A gnd NAND3X1_326/B vdd OAI21X1
XOAI21X1_353 AOI22X1_46/Y AOI22X1_45/Y OAI21X1_353/C gnd NAND3X1_281/C vdd OAI21X1
XOAI21X1_342 INVX2_35/Y INVX1_279/Y NOR2X1_210/Y gnd OAI21X1_342/Y vdd OAI21X1
XOAI21X1_331 AOI22X1_39/Y AOI21X1_133/Y NAND2X1_338/A gnd OAI21X1_332/C vdd OAI21X1
XOAI21X1_320 INVX1_257/A NOR2X1_196/Y OAI21X1_320/C gnd OAI21X1_320/Y vdd OAI21X1
XOAI21X1_386 INVX1_297/Y AOI21X1_142/Y NAND3X1_326/C gnd INVX1_311/A vdd OAI21X1
XAND2X2_9 OR2X2_4/B XOR2X1_5/B gnd AND2X2_9/Y vdd AND2X2
XXOR2X1_20 OR2X2_29/A OR2X2_29/B gnd XOR2X1_20/Y vdd XOR2X1
XOAI21X1_375 OAI21X1_375/A OAI21X1_375/B NAND3X1_302/Y gnd OR2X2_33/A vdd OAI21X1
XNAND2X1_392 NAND3X1_279/B NAND3X1_279/C gnd NAND2X1_395/B vdd NAND2X1
XNAND2X1_381 INVX1_282/A XOR2X1_20/Y gnd NAND3X1_275/B vdd NAND2X1
XNAND2X1_370 INVX2_36/A INVX1_96/A gnd INVX1_278/A vdd NAND2X1
XINVX1_214 INVX1_214/A gnd INVX1_214/Y vdd INVX1
XINVX1_225 INVX1_225/A gnd INVX1_225/Y vdd INVX1
XOAI21X1_172 INVX1_144/Y gnd NOR2X1_110/Y gnd AND2X2_19/A vdd OAI21X1
XINVX1_203 INVX1_203/A gnd INVX1_203/Y vdd INVX1
XAOI22X1_4 BUFX4_11/Y INVX1_131/Y AOI22X1_4/C OR2X2_5/Y gnd AOI22X1_4/Y vdd AOI22X1
XOAI21X1_194 INVX1_154/A NAND2X1_145/Y AND2X2_21/B gnd INVX1_173/A vdd OAI21X1
XOAI21X1_183 INVX2_10/Y INVX1_153/Y OAI21X1_183/C gnd AND2X2_21/A vdd OAI21X1
XOAI21X1_150 BUFX4_13/Y XNOR2X1_15/Y OAI21X1_150/C gnd DFFPOSX1_2/D vdd OAI21X1
XOAI21X1_161 NOR2X1_100/Y AND2X2_17/Y INVX1_128/Y gnd AOI22X1_5/C vdd OAI21X1
XNAND2X1_14 INVX1_90/A BUFX4_14/Y gnd OAI21X1_14/C vdd NAND2X1
XNAND2X1_25 x2[6] INVX1_48/Y gnd AND2X2_5/A vdd NAND2X1
XINVX1_247 INVX1_247/A gnd INVX1_247/Y vdd INVX1
XINVX1_236 INVX1_236/A gnd INVX1_236/Y vdd INVX1
XINVX1_269 INVX1_269/A gnd INVX1_269/Y vdd INVX1
XINVX1_258 OR2X2_6/B gnd INVX1_258/Y vdd INVX1
XNAND2X1_47 INVX2_41/A OR2X2_4/B gnd OAI21X1_81/C vdd NAND2X1
XNAND2X1_36 NOR2X1_5/Y AND2X2_8/Y gnd INVX1_76/A vdd NAND2X1
XNAND2X1_58 BUFX4_1/Y INVX1_68/A gnd OAI21X1_95/C vdd NAND2X1
XNAND2X1_69 INVX1_41/A INVX1_75/Y gnd NAND2X1_69/Y vdd NAND2X1
XAOI22X1_23 AOI22X1_23/A AOI22X1_23/B AOI22X1_23/C AOI22X1_23/D gnd NOR3X1_7/C vdd
+ AOI22X1
XAOI22X1_12 AOI22X1_12/A AOI22X1_12/B AOI22X1_12/C AOI22X1_12/D gnd AOI22X1_12/Y vdd
+ AOI22X1
XAOI22X1_45 AOI22X1_43/D AOI22X1_43/C AOI22X1_44/C OR2X2_31/Y gnd AOI22X1_45/Y vdd
+ AOI22X1
XAOI22X1_34 AND2X2_36/B AND2X2_36/A AOI22X1_34/C AOI22X1_34/D gnd NOR3X1_9/B vdd AOI22X1
XNOR3X1_2 NOR3X1_2/A NOR3X1_2/B NOR3X1_2/C gnd NOR3X1_3/B vdd NOR3X1
XFILL_23_1_1 gnd vdd FILL
XOAI22X1_7 OAI22X1_7/A OAI22X1_7/B OAI22X1_9/C OAI22X1_9/D gnd OAI22X1_7/Y vdd OAI22X1
XFILL_6_2_1 gnd vdd FILL
XFILL_14_1_1 gnd vdd FILL
XINVX2_38 INVX2_38/A gnd INVX2_38/Y vdd INVX2
XINVX2_27 gnd gnd INVX2_27/Y vdd INVX2
XINVX2_16 INVX2_16/A gnd INVX2_16/Y vdd INVX2
XCLKBUF1_1 clk gnd CLKBUF1_1/Y vdd CLKBUF1
XDFFPOSX1_118 BUFX2_14/A CLKBUF1_2/Y XOR2X1_13/Y gnd vdd DFFPOSX1
XDFFPOSX1_129 BUFX2_25/A CLKBUF1_6/Y NOR2X1_201/Y gnd vdd DFFPOSX1
XDFFPOSX1_107 BUFX2_3/A CLKBUF1_3/Y XNOR2X1_38/Y gnd vdd DFFPOSX1
XNOR2X1_221 OR2X2_32/A OR2X2_32/B gnd NOR2X1_221/Y vdd NOR2X1
XNOR2X1_210 INVX1_273/A INVX2_39/Y gnd NOR2X1_210/Y vdd NOR2X1
XFILL_3_0_1 gnd vdd FILL
XFILL_19_0_1 gnd vdd FILL
XBUFX4_12 INVX8_1/Y gnd BUFX4_12/Y vdd BUFX4
XNAND3X1_350 OAI22X1_21/Y OAI21X1_377/Y AND2X2_48/Y gnd NAND2X1_435/B vdd NAND3X1
XNAND3X1_361 OAI21X1_390/Y OR2X2_34/Y OAI21X1_392/C gnd NAND3X1_361/Y vdd NAND3X1
XOR2X2_15 OR2X2_15/A OR2X2_15/B gnd OR2X2_15/Y vdd OR2X2
XOR2X2_26 OR2X2_26/A OR2X2_26/B gnd OR2X2_26/Y vdd OR2X2
XOR2X2_8 OR2X2_8/A OR2X2_8/B gnd OR2X2_8/Y vdd OR2X2
XFILL_9_3 gnd vdd FILL
XNAND3X1_191 INVX1_234/Y NAND3X1_191/B INVX1_264/A gnd NAND3X1_194/B vdd NAND3X1
XNAND3X1_180 INVX2_28/A INVX1_131/A NOR2X1_176/Y gnd NAND3X1_180/Y vdd NAND3X1
XOAI21X1_354 AOI22X1_43/Y AOI22X1_44/Y OAI21X1_353/C gnd NAND3X1_282/B vdd OAI21X1
XOAI21X1_343 INVX2_39/Y INVX1_273/A NOR2X1_209/Y gnd NAND2X1_373/B vdd OAI21X1
XOAI21X1_365 INVX1_290/A INVX2_44/A AOI22X1_51/D gnd XNOR2X1_47/A vdd OAI21X1
XOAI21X1_387 NAND2X1_423/Y OAI21X1_371/B NAND3X1_325/B gnd OAI21X1_387/Y vdd OAI21X1
XOAI21X1_376 INVX2_44/A AOI22X1_52/Y NAND3X1_298/C gnd OAI21X1_376/Y vdd OAI21X1
XOAI21X1_321 NAND2X1_333/Y OAI21X1_321/B NAND3X1_203/Y gnd OAI21X1_321/Y vdd OAI21X1
XOAI21X1_310 AOI21X1_109/Y NOR3X1_9/Y INVX1_254/Y gnd OAI21X1_310/Y vdd OAI21X1
XOAI21X1_332 AOI22X1_40/Y AOI22X1_41/Y OAI21X1_332/C gnd NAND2X1_360/B vdd OAI21X1
XXOR2X1_21 XOR2X1_21/A XOR2X1_21/B gnd XOR2X1_21/Y vdd XOR2X1
XXOR2X1_10 XOR2X1_10/A XOR2X1_10/B gnd XOR2X1_10/Y vdd XOR2X1
XNAND2X1_382 INVX1_273/A INVX1_279/A gnd INVX1_286/A vdd NAND2X1
XNAND2X1_393 INVX1_288/A NAND2X1_395/B gnd AOI22X1_43/D vdd NAND2X1
XNAND2X1_371 NAND3X1_273/A NAND2X1_387/A gnd NAND2X1_371/Y vdd NAND2X1
XNAND2X1_360 OAI21X1_330/Y NAND2X1_360/B gnd NAND2X1_360/Y vdd NAND2X1
XOAI21X1_184 NOR3X1_6/B NOR3X1_6/C NOR3X1_6/A gnd AOI21X1_67/B vdd OAI21X1
XOAI21X1_162 INVX2_9/A INVX2_10/Y NOR2X1_105/Y gnd INVX1_135/A vdd OAI21X1
XINVX1_248 INVX1_248/A gnd OR2X2_24/B vdd INVX1
XINVX1_215 INVX1_215/A gnd INVX1_215/Y vdd INVX1
XOAI21X1_173 INVX1_136/A INVX1_143/A OR2X2_10/A gnd OAI21X1_173/Y vdd OAI21X1
XINVX1_259 INVX1_259/A gnd INVX1_259/Y vdd INVX1
XINVX1_237 INVX1_237/A gnd INVX1_237/Y vdd INVX1
XINVX1_226 INVX1_226/A gnd INVX1_226/Y vdd INVX1
XINVX1_204 INVX1_105/A gnd INVX1_204/Y vdd INVX1
XOAI21X1_195 INVX2_9/Y INVX2_16/Y INVX1_153/Y gnd AND2X2_24/B vdd OAI21X1
XOAI21X1_151 NOR2X1_97/A INVX1_130/Y AOI21X1_33/Y gnd XNOR2X1_16/A vdd OAI21X1
XAOI22X1_5 BUFX4_10/Y INVX1_132/Y AOI22X1_5/C AOI22X1_5/D gnd AOI22X1_5/Y vdd AOI22X1
XOAI21X1_140 BUFX4_13/Y INVX2_4/Y NAND2X1_100/Y gnd DFFPOSX1_22/D vdd OAI21X1
XNAND2X1_26 x0[6] INVX1_49/Y gnd AND2X2_5/B vdd NAND2X1
XNAND2X1_15 OAI21X1_27/Y NAND2X1_15/B gnd OAI21X1_29/B vdd NAND2X1
XNAND2X1_48 NOR2X1_60/Y NOR2X1_61/Y gnd INVX1_91/A vdd NAND2X1
XNAND2X1_59 BUFX4_1/Y INVX1_69/A gnd NAND2X1_59/Y vdd NAND2X1
XNAND2X1_37 INVX1_113/A BUFX4_16/Y gnd NAND2X1_37/Y vdd NAND2X1
XNAND2X1_190 INVX1_187/A INVX2_17/Y gnd XNOR2X1_31/B vdd NAND2X1
XAOI22X1_46 AOI22X1_46/A AOI22X1_46/B INVX1_304/A AOI22X1_46/D gnd AOI22X1_46/Y vdd
+ AOI22X1
XAOI22X1_24 INVX2_19/A INVX1_105/A INVX1_104/A INVX1_103/A gnd OAI22X1_18/D vdd AOI22X1
XAOI22X1_35 INVX2_29/A INVX1_242/A INVX1_131/A INVX2_33/A gnd INVX1_255/A vdd AOI22X1
XAOI22X1_13 AOI22X1_13/A AOI22X1_13/B AOI22X1_13/C AOI22X1_13/D gnd NOR3X1_5/C vdd
+ AOI22X1
XNOR3X1_3 INVX2_15/A NOR3X1_3/B NOR3X1_3/C gnd NOR3X1_3/Y vdd NOR3X1
XFILL_23_1_2 gnd vdd FILL
XOAI22X1_8 INVX2_14/Y OAI22X1_9/B OAI22X1_8/C OAI22X1_8/D gnd OAI22X1_8/Y vdd OAI22X1
XFILL_6_2_2 gnd vdd FILL
XFILL_14_1_2 gnd vdd FILL
XAOI21X1_90 INVX2_25/Y INVX2_23/A NOR2X1_154/Y gnd AOI21X1_90/Y vdd AOI21X1
XFILL_19_1 gnd vdd FILL
XINVX2_39 INVX2_39/A gnd INVX2_39/Y vdd INVX2
XINVX2_28 INVX2_28/A gnd INVX2_28/Y vdd INVX2
XINVX2_17 INVX2_17/A gnd INVX2_17/Y vdd INVX2
XDFFPOSX1_119 BUFX2_15/A CLKBUF1_2/Y XNOR2X1_35/Y gnd vdd DFFPOSX1
XDFFPOSX1_108 BUFX2_4/A DFFSR_1/CLK NOR2X1_175/Y gnd vdd DFFPOSX1
XCLKBUF1_2 clk gnd CLKBUF1_2/Y vdd CLKBUF1
XNOR2X1_222 INVX2_39/A INVX2_41/Y gnd INVX1_296/A vdd NOR2X1
XNOR2X1_211 NOR2X1_211/A INVX1_280/Y gnd INVX1_281/A vdd NOR2X1
XNOR2X1_200 INVX2_35/A INVX2_36/A gnd NOR2X1_201/A vdd NOR2X1
XFILL_3_0_2 gnd vdd FILL
XDFFPOSX1_90 INVX1_4/A CLKBUF1_2/Y OAI21X1_4/Y gnd vdd DFFPOSX1
XFILL_19_0_2 gnd vdd FILL
XBUFX4_13 INVX8_1/Y gnd BUFX4_13/Y vdd BUFX4
XNAND3X1_340 AOI21X1_146/Y NAND3X1_343/B NAND3X1_343/C gnd AOI22X1_54/C vdd NAND3X1
XNAND3X1_362 NAND3X1_362/A OAI22X1_22/Y NAND3X1_361/Y gnd NAND3X1_362/Y vdd NAND3X1
XNAND3X1_351 INVX1_307/A NAND2X1_434/Y NAND3X1_351/C gnd NAND3X1_351/Y vdd NAND3X1
XOR2X2_9 OR2X2_9/A OR2X2_9/B gnd OR2X2_9/Y vdd OR2X2
XOR2X2_27 OR2X2_27/A OR2X2_27/B gnd OR2X2_27/Y vdd OR2X2
XOR2X2_16 OR2X2_16/A OR2X2_16/B gnd OR2X2_16/Y vdd OR2X2
XFILL_21_2_0 gnd vdd FILL
XFILL_12_2_0 gnd vdd FILL
XNAND3X1_192 INVX1_234/A NAND3X1_189/B NAND3X1_189/C gnd NAND3X1_194/C vdd NAND3X1
XNAND3X1_181 OAI21X1_283/Y XOR2X1_17/A NAND3X1_180/Y gnd NAND2X1_287/A vdd NAND3X1
XNAND3X1_170 OAI21X1_273/Y OR2X2_20/Y NAND3X1_170/C gnd NAND3X1_170/Y vdd NAND3X1
XOAI21X1_355 AOI22X1_46/Y AOI22X1_45/Y OAI21X1_355/C gnd NAND3X1_282/C vdd OAI21X1
XOAI21X1_344 NOR2X1_219/A NOR2X1_219/B AND2X2_44/B gnd OAI21X1_344/Y vdd OAI21X1
XOAI21X1_377 INVX2_41/Y INVX2_43/A OR2X2_32/Y gnd OAI21X1_377/Y vdd OAI21X1
XOAI21X1_333 INVX1_273/Y INVX2_38/Y INVX2_40/Y gnd AND2X2_43/A vdd OAI21X1
XOAI21X1_366 INVX2_36/Y INVX1_299/Y NOR2X1_224/B gnd NAND3X1_298/B vdd OAI21X1
XOAI21X1_388 OAI21X1_389/A INVX1_310/Y NAND2X1_441/Y gnd NAND3X1_358/B vdd OAI21X1
XOAI21X1_300 NOR3X1_8/A NOR3X1_8/C NOR3X1_8/B gnd INVX1_252/A vdd OAI21X1
XOAI21X1_322 NOR3X1_11/B NOR3X1_11/C INVX1_270/A gnd OAI21X1_322/Y vdd OAI21X1
XOAI21X1_311 OAI21X1_312/A OAI21X1_312/B NAND2X1_337/Y gnd NAND3X1_231/C vdd OAI21X1
XNAND2X1_372 NAND2X1_372/A OAI21X1_341/Y gnd OR2X2_29/A vdd NAND2X1
XXOR2X1_22 XOR2X1_22/A XOR2X1_22/B gnd INVX1_309/A vdd XOR2X1
XNAND2X1_361 NAND3X1_184/Y NAND2X1_361/B gnd NOR2X1_197/B vdd NAND2X1
XXOR2X1_11 XOR2X1_11/A XOR2X1_10/B gnd XOR2X1_11/Y vdd XOR2X1
XNAND2X1_350 NAND2X1_343/Y AOI21X1_122/Y gnd NAND2X1_351/A vdd NAND2X1
XNAND2X1_394 OR2X2_31/B OR2X2_31/A gnd AOI22X1_44/C vdd NAND2X1
XNAND2X1_383 INVX2_35/A AOI22X1_47/D gnd INVX1_287/A vdd NAND2X1
XFILL_7_1 gnd vdd FILL
XNAND3X1_1 BUFX4_2/Y NAND3X1_1/B OAI21X1_5/C gnd OAI21X1_4/C vdd NAND3X1
XFILL_1_1_0 gnd vdd FILL
XOAI21X1_130 BUFX4_10/Y XNOR2X1_14/Y NAND2X1_90/Y gnd OAI21X1_130/Y vdd OAI21X1
XOAI21X1_141 BUFX4_12/Y INVX1_29/Y NAND2X1_101/Y gnd DFFPOSX1_23/D vdd OAI21X1
XAOI22X1_6 AOI22X1_6/A AOI22X1_6/B AOI22X1_6/C AOI22X1_6/D gnd AOI22X1_6/Y vdd AOI22X1
XOAI21X1_185 NOR2X1_112/Y INVX2_11/Y OR2X2_9/Y gnd NAND3X1_33/C vdd OAI21X1
XOAI21X1_174 NOR2X1_112/Y INVX2_11/Y AOI22X1_6/C gnd AOI21X1_43/A vdd OAI21X1
XINVX1_249 NOR3X1_8/Y gnd INVX1_249/Y vdd INVX1
XINVX1_216 INVX1_216/A gnd INVX1_216/Y vdd INVX1
XOAI21X1_163 INVX1_134/Y INVX1_136/A OR2X2_8/B gnd AOI21X1_41/C vdd OAI21X1
XINVX1_205 INVX1_205/A gnd INVX1_205/Y vdd INVX1
XINVX1_238 INVX1_238/A gnd INVX1_238/Y vdd INVX1
XINVX1_227 gnd gnd INVX1_227/Y vdd INVX1
XOAI21X1_152 BUFX4_11/Y XNOR2X1_16/Y OAI21X1_152/C gnd DFFPOSX1_3/D vdd OAI21X1
XOAI21X1_196 INVX2_16/Y XOR2X1_6/B AND2X2_24/B gnd NOR2X1_121/B vdd OAI21X1
XNAND2X1_49 INVX1_279/A BUFX4_14/Y gnd OAI21X1_83/C vdd NAND2X1
XNAND2X1_27 INVX1_50/Y NOR2X1_30/B gnd OR2X2_2/A vdd NAND2X1
XNAND2X1_38 INVX1_79/A NOR2X1_46/Y gnd NAND3X1_6/C vdd NAND2X1
XNAND2X1_16 NOR2X1_64/A BUFX4_16/Y gnd OAI21X1_29/C vdd NAND2X1
XNAND2X1_180 XNOR2X1_28/Y INVX1_177/Y gnd AOI22X1_12/C vdd NAND2X1
XFILL_9_2_0 gnd vdd FILL
XNAND2X1_191 NAND3X1_77/Y NAND2X1_191/B gnd OR2X2_15/B vdd NAND2X1
XFILL_17_1_0 gnd vdd FILL
XAOI22X1_47 INVX2_39/A INVX1_279/A INVX1_273/A AOI22X1_47/D gnd INVX2_43/A vdd AOI22X1
XAOI22X1_36 OR2X2_26/Y AOI22X1_36/B AOI22X1_36/C AOI22X1_36/D gnd NOR3X1_11/B vdd
+ AOI22X1
XAOI22X1_25 INVX1_205/Y INVX2_26/Y INVX1_212/Y AOI22X1_25/D gnd AOI22X1_25/Y vdd AOI22X1
XAOI22X1_14 AND2X2_25/A AND2X2_25/B NAND3X1_59/A NAND3X1_56/Y gnd AOI22X1_14/Y vdd
+ AOI22X1
XNOR3X1_4 INVX2_15/Y NOR3X1_3/B NOR3X1_3/C gnd NOR3X1_4/Y vdd NOR3X1
XOAI22X1_9 INVX2_14/Y OAI22X1_9/B OAI22X1_9/C OAI22X1_9/D gnd OAI22X1_9/Y vdd OAI22X1
XAOI21X1_91 AOI21X1_91/A AOI21X1_91/B OAI22X1_18/Y gnd AOI21X1_91/Y vdd AOI21X1
XAOI21X1_80 AOI21X1_80/A AOI21X1_80/B INVX1_217/Y gnd AOI21X1_94/C vdd AOI21X1
XFILL_19_2 gnd vdd FILL
XINVX2_29 INVX2_29/A gnd INVX2_29/Y vdd INVX2
XINVX2_18 INVX2_18/A gnd INVX2_18/Y vdd INVX2
XXOR2X1_1 x1[1] x3[1] gnd XOR2X1_1/Y vdd XOR2X1
XFILL_6_0_0 gnd vdd FILL
XDFFPOSX1_109 BUFX2_5/A DFFSR_1/CLK NOR2X1_198/Y gnd vdd DFFPOSX1
XCLKBUF1_3 clk gnd CLKBUF1_3/Y vdd CLKBUF1
XNOR2X1_223 INVX1_304/Y AOI22X1_45/Y gnd NOR2X1_223/Y vdd NOR2X1
XNOR2X1_212 INVX1_286/A INVX1_287/A gnd INVX1_293/A vdd NOR2X1
XNOR2X1_201 NOR2X1_201/A NOR2X1_199/Y gnd NOR2X1_201/Y vdd NOR2X1
XDFFPOSX1_80 XOR2X1_5/B CLKBUF1_7/Y AND2X2_9/Y gnd vdd DFFPOSX1
XBUFX4_14 INVX8_1/Y gnd BUFX4_14/Y vdd BUFX4
XDFFPOSX1_91 INVX1_89/A CLKBUF1_2/Y OAI21X1_6/Y gnd vdd DFFPOSX1
XNAND3X1_341 INVX1_306/A AOI22X1_54/C OR2X2_34/A gnd OAI21X1_391/C vdd NAND3X1
XNAND3X1_330 OAI21X1_358/Y NAND3X1_334/A NAND3X1_334/C gnd NAND3X1_333/B vdd NAND3X1
XNAND3X1_363 OAI21X1_372/Y NAND3X1_360/B NAND3X1_360/C gnd NAND2X1_444/A vdd NAND3X1
XNAND3X1_352 NAND3X1_352/A NAND3X1_351/Y OAI21X1_383/Y gnd NAND2X1_436/B vdd NAND3X1
XOR2X2_28 OR2X2_28/A OR2X2_28/B gnd OR2X2_28/Y vdd OR2X2
XOR2X2_17 OR2X2_17/A OR2X2_17/B gnd OR2X2_17/Y vdd OR2X2
XFILL_21_2_1 gnd vdd FILL
XFILL_12_2_1 gnd vdd FILL
XNAND3X1_193 NAND3X1_194/B NAND3X1_194/C OAI21X1_297/Y gnd NAND2X1_312/B vdd NAND3X1
XNAND3X1_182 INVX1_235/A NAND3X1_182/B NAND3X1_182/C gnd AOI21X1_108/C vdd NAND3X1
XNAND3X1_160 OAI22X1_18/Y AOI21X1_90/Y AND2X2_31/Y gnd AND2X2_32/A vdd NAND3X1
XNAND3X1_171 AOI21X1_84/Y OAI22X1_19/Y NAND3X1_170/Y gnd NAND3X1_171/Y vdd NAND3X1
XOAI21X1_301 NOR3X1_8/Y INVX1_252/Y AND2X2_36/Y gnd NAND3X1_199/C vdd OAI21X1
XOAI21X1_323 OAI21X1_312/B NAND2X1_337/Y NAND3X1_228/A gnd NOR3X1_11/A vdd OAI21X1
XOAI21X1_312 OAI21X1_312/A OAI21X1_312/B OAI21X1_312/C gnd NAND3X1_232/B vdd OAI21X1
XOAI21X1_345 INVX1_282/A NAND2X1_380/A OR2X2_29/Y gnd OAI21X1_355/C vdd OAI21X1
XOAI21X1_356 INVX1_284/A NOR2X1_219/B AOI21X1_141/C gnd NAND3X1_286/A vdd OAI21X1
XOAI21X1_334 INVX1_273/A INVX2_38/A INVX2_40/A gnd AND2X2_43/B vdd OAI21X1
XOAI21X1_378 AOI22X1_51/Y XNOR2X1_49/A OAI21X1_377/Y gnd OAI21X1_378/Y vdd OAI21X1
XOAI21X1_367 INVX1_300/A INVX1_301/Y AND2X2_47/Y gnd NAND2X1_419/B vdd OAI21X1
XOAI21X1_389 OAI21X1_389/A INVX1_310/Y XNOR2X1_52/Y gnd NAND3X1_360/C vdd OAI21X1
XNAND2X1_384 OR2X2_30/B OR2X2_30/A gnd NAND3X1_277/B vdd NAND2X1