*SPEF "IEEE 1481.1999"
*DESIGN "fft_top"
*DATE "21:25:06 Tuesday March 25, 2025"
*VENDOR "unknown"
*PROGRAM "qrouter"
*VERSION "unknown"
*DESIGN_FLOW "qflow"
*DIVIDER /
*DELIMITER :
*BUS_DELIMITER <>
*T_UNIT 1 PS
*C_UNIT 1 FF
*R_UNIT 1 OHM
*L_UNIT 1 HENRY

*NAME_MAP
*1 clk_bF_buf10
*2 CLKBUF1_1
*3 DFFPOSX1_86
*4 DFFPOSX1_72
*5 DFFPOSX1_71
*6 DFFPOSX1_56
*7 DFFPOSX1_55
*8 DFFPOSX1_94
*9 DFFPOSX1_69
*10 DFFPOSX1_93
*11 DFFPOSX1_66
*12 DFFPOSX1_70
*13 DFFPOSX1_100
*14 DFFPOSX1_85
*15 DFFPOSX1_103
*16 clk_bF_buf9
*17 CLKBUF1_2
*18 DFFPOSX1_91
*19 DFFPOSX1_89
*20 DFFPOSX1_90
*21 DFFPOSX1_65
*22 DFFPOSX1_92
*23 DFFPOSX1_67
*24 DFFPOSX1_49
*25 DFFPOSX1_52
*26 DFFPOSX1_50
*27 DFFPOSX1_51
*28 DFFPOSX1_68
*29 DFFPOSX1_119
*30 DFFPOSX1_118
*31 clk_bF_buf8
*32 CLKBUF1_3
*33 DFFPOSX1_110
*34 DFFPOSX1_78
*35 DFFPOSX1_112
*36 DFFPOSX1_113
*37 DFFPOSX1_62
*38 DFFPOSX1_32
*39 DFFPOSX1_31
*40 DFFPOSX1_29
*41 DFFPOSX1_30
*42 DFFPOSX1_107
*43 DFFPOSX1_27
*44 DFFPOSX1_77
*45 DFFPOSX1_61
*46 clk_bF_buf7
*47 CLKBUF1_4
*48 DFFPOSX1_104
*49 DFFPOSX1_117
*50 DFFPOSX1_79
*51 DFFPOSX1_40
*52 DFFPOSX1_33
*53 DFFPOSX1_38
*54 DFFPOSX1_36
*55 DFFPOSX1_35
*56 DFFPOSX1_37
*57 DFFPOSX1_48
*58 DFFPOSX1_41
*59 DFFPOSX1_43
*60 DFFPOSX1_98
*61 clk_bF_buf6
*62 CLKBUF1_5
*63 DFFPOSX1_1
*64 DFFPOSX1_19
*65 DFFPOSX1_10
*66 DFFPOSX1_58
*67 DFFPOSX1_88
*68 DFFPOSX1_22
*69 DFFPOSX1_74
*70 DFFPOSX1_7
*71 DFFPOSX1_12
*72 DFFPOSX1_6
*73 DFFPOSX1_75
*74 DFFPOSX1_2
*75 DFFPOSX1_59
*76 X3_imag[9]
*77 DFFPOSX1_42
*78 NAND2X1_43
*79 NOR2X1_210
*80 OAI21X1_343
*81 NAND3X1_268
*82 OAI21X1_334
*83 INVX1_273
*84 NAND2X1_362
*85 NAND3X1_267
*86 OAI21X1_346
*87 OAI21X1_347
*88 NAND2X1_382
*89 NAND2X1_404
*90 AOI22X1_47
*91 X3_real[8]
*92 DFFPOSX1_33
*93 NAND3X1_299
*94 AOI22X1_52
*95 INVX1_93
*96 NAND2X1_418
*97 AND2X2_46
*98 NAND2X1_415
*99 OAI21X1_336
*100 AOI22X1_42
*101 NOR2X1_202
*102 NOR2X1_200
*103 INVX2_36
*104 NAND2X1_370
*105 NAND2X1_426
*106 X2_real[8]
*107 DFFPOSX1_25
*108 NAND2X1_78
*109 NAND2X1_128
*110 NAND2X1_161
*111 NOR2X1_104
*112 OAI21X1_162
*113 INVX2_9
*114 NOR2X1_102
*115 NAND3X1_19
*116 NAND2X1_162
*117 NAND2X1_171
*118 NAND3X1_20
*119 NAND2X1_143
*120 OAI21X1_166
*121 X1_imag[9]
*122 DFFPOSX1_18
*123 NAND2X1_96
*124 NAND3X1_76
*125 OAI21X1_218
*126 NAND2X1_190
*127 NOR2X1_143
*128 OAI21X1_227
*129 OAI21X1_230
*130 OAI21X1_231
*131 NAND2X1_210
*132 AOI22X1_21
*133 NAND2X1_232
*134 INVX1_187
*135 NAND3X1_77
*136 clk_bF_buf5
*137 CLKBUF1_6
*138 DFFPOSX1_136
*139 DFFPOSX1_133
*140 DFFPOSX1_127
*141 DFFPOSX1_130
*142 DFFPOSX1_128
*143 DFFPOSX1_126
*144 DFFPOSX1_129
*145 DFFPOSX1_125
*146 DFFPOSX1_124
*147 DFFPOSX1_121
*148 DFFPOSX1_123
*149 DFFPOSX1_122
*150 clk_bF_buf4
*151 CLKBUF1_7
*152 DFFPOSX1_64
*153 DFFPOSX1_47
*154 DFFPOSX1_42
*155 DFFPOSX1_44
*156 DFFPOSX1_45
*157 DFFPOSX1_80
*158 DFFPOSX1_46
*159 DFFPOSX1_97
*160 DFFPOSX1_101
*161 DFFPOSX1_96
*162 DFFPOSX1_102
*163 DFFPOSX1_95
*164 clk_bF_buf3
*165 CLKBUF1_8
*166 DFFPOSX1_81
*167 DFFPOSX1_18
*168 DFFPOSX1_57
*169 DFFPOSX1_83
*170 DFFPOSX1_20
*171 DFFPOSX1_21
*172 DFFPOSX1_39
*173 DFFPOSX1_23
*174 DFFPOSX1_73
*175 DFFPOSX1_84
*176 DFFPOSX1_99
*177 DFFPOSX1_87
*178 clk_bF_buf2
*179 CLKBUF1_9
*180 DFFPOSX1_28
*181 DFFPOSX1_60
*182 DFFPOSX1_5
*183 DFFPOSX1_8
*184 DFFPOSX1_82
*185 DFFPOSX1_34
*186 DFFPOSX1_26
*187 DFFPOSX1_63
*188 DFFPOSX1_25
*189 DFFPOSX1_4
*190 DFFPOSX1_3
*191 DFFPOSX1_76
*192 clk_bF_buf1
*193 CLKBUF1_10
*194 DFFPOSX1_11
*195 DFFPOSX1_9
*196 DFFPOSX1_115
*197 DFFPOSX1_53
*198 DFFPOSX1_54
*199 DFFPOSX1_116
*200 DFFPOSX1_17
*201 DFFPOSX1_24
*202 DFFPOSX1_15
*203 DFFPOSX1_13
*204 DFFPOSX1_16
*205 DFFPOSX1_14
*206 clk_bF_buf0
*207 CLKBUF1_11
*208 DFFPOSX1_109
*209 DFFPOSX1_131
*210 DFFPOSX1_108
*211 DFFPOSX1_111
*212 DFFPOSX1_114
*213 DFFPOSX1_106
*214 DFFPOSX1_120
*215 DFFPOSX1_132
*216 DFFSR_1
*217 DFFPOSX1_134
*218 DFFPOSX1_135
*219 DFFPOSX1_105
*220 X3_real[9]
*221 DFFPOSX1_34
*222 INVX1_94
*223 NAND2X1_425
*224 AOI22X1_52
*225 NAND3X1_300
*226 NAND2X1_417
*227 AND2X2_47
*228 AOI22X1_50
*229 NAND2X1_390
*230 NAND2X1_388
*231 OAI21X1_340
*232 INVX2_37
*233 OAI21X1_336
*234 X1_real[8]
*235 DFFPOSX1_9
*236 NOR2X1_133
*237 INVX1_101
*238 INVX2_18
*239 NOR2X1_135
*240 AOI22X1_16
*241 OAI21X1_220
*242 NAND2X1_198
*243 NAND3X1_108
*244 NAND2X1_243
*245 AND2X2_29
*246 NAND2X1_246
*247 NAND2X1_254
*248 X0_real[8]
*249 DFFPOSX1_1
*250 NAND2X1_107
*251 AND2X2_37
*252 NAND2X1_334
*253 NAND2X1_329
*254 NAND2X1_341
*255 INVX2_28
*256 NAND2X1_285
*257 NAND3X1_180
*258 OAI21X1_279
*259 AOI22X1_28
*260 NOR2X1_164
*261 NOR2X1_166
*262 clk
*263 CLKBUF1_2
*264 CLKBUF1_10
*265 CLKBUF1_8
*266 CLKBUF1_4
*267 CLKBUF1_7
*268 CLKBUF1_1
*269 CLKBUF1_5
*270 CLKBUF1_9
*271 CLKBUF1_11
*272 CLKBUF1_3
*273 CLKBUF1_6
*274 start_bF_buf8
*275 BUFX4_1
*276 NAND2X1_59
*277 OAI21X1_55
*278 OAI21X1_97
*279 NAND2X1_60
*280 NAND2X1_56
*281 OAI21X1_51
*282 NAND2X1_58
*283 OAI21X1_19
*284 NAND2X1_57
*285 OAI21X1_94
*286 OAI21X1_93
*287 start_bF_buf7
*288 BUFX4_2
*289 OAI21X1_9
*290 OAI22X1_1
*291 OAI21X1_59
*292 OAI21X1_25
*293 OAI21X1_26
*294 NAND3X1_4
*295 OAI21X1_4
*296 OAI21X1_2
*297 OAI21X1_57
*298 NAND3X1_1
*299 OAI21X1_1
*300 start_bF_buf6
*301 BUFX4_3
*302 OAI22X1_6
*303 OAI21X1_72
*304 NAND3X1_6
*305 OAI22X1_4
*306 OAI21X1_70
*307 INVX8_1
*308 OAI21X1_63
*309 OAI22X1_5
*310 OAI21X1_35
*311 OAI22X1_3
*312 NAND2X1_28
*313 start_bF_buf5
*314 BUFX4_4
*315 OAI21X1_99
*316 OAI21X1_56
*317 NAND2X1_61
*318 OAI21X1_106
*319 OAI21X1_105
*320 OAI21X1_103
*321 OAI21X1_104
*322 OAI21X1_102
*323 OR2X2_6
*324 OAI21X1_142
*325 OAI21X1_101
*326 start_bF_buf4
*327 BUFX4_5
*328 OAI21X1_116
*329 OAI21X1_50
*330 NAND2X1_55
*331 OAI21X1_92
*332 OAI21X1_160
*333 NOR2X1_37
*334 OAI21X1_154
*335 OAI21X1_122
*336 NOR2X1_36
*337 NOR2X1_51
*338 NOR2X1_52
*339 X1_real[9]
*340 DFFPOSX1_10
*341 INVX1_102
*342 OAI21X1_224
*343 INVX2_19
*344 OAI21X1_220
*345 NAND2X1_253
*346 NAND2X1_245
*347 AND2X2_30
*348 AOI22X1_24
*349 NAND3X1_109
*350 NAND2X1_216
*351 NAND2X1_218
*352 X0_real[9]
*353 DFFPOSX1_2
*354 NAND2X1_109
*355 NAND2X1_331
*356 AND2X2_38
*357 NAND2X1_305
*358 AOI22X1_35
*359 NAND2X1_303
*360 INVX2_29
*361 OAI21X1_283
*362 OAI21X1_279
*363 NOR2X1_176
*364 NAND2X1_342
*365 start_bF_buf3
*366 BUFX4_6
*367 OAI21X1_54
*368 OAI21X1_20
*369 OAI21X1_18
*370 OAI21X1_88
*371 OAI21X1_78
*372 OAI21X1_80
*373 OAI21X1_74
*374 NAND2X1_53
*375 OAI21X1_24
*376 OAI21X1_95
*377 start_bF_buf2
*378 BUFX4_7
*379 OAI21X1_96
*380 OAI21X1_98
*381 OAI21X1_91
*382 NOR2X1_54
*383 NOR2X1_39
*384 OAI21X1_132
*385 NOR2X1_38
*386 NOR2X1_53
*387 OR2X2_7
*388 OAI21X1_128
*389 start_bF_buf1
*390 BUFX4_8
*391 OAI21X1_53
*392 OAI22X1_2
*393 OAI21X1_22
*394 NAND2X1_13
*395 OAI21X1_73
*396 OAI21X1_15
*397 OAI21X1_23
*398 OAI21X1_17
*399 OAI21X1_21
*400 OAI21X1_82
*401 start_bF_buf0
*402 BUFX4_9
*403 OAI21X1_119
*404 OAI21X1_52
*405 NAND2X1_54
*406 OAI21X1_49
*407 NOR2X1_49
*408 NOR2X1_34
*409 OAI21X1_100
*410 OAI21X1_148
*411 NOR2X1_35
*412 NOR2X1_50
*413 _128__bF_buf7
*414 BUFX4_10
*415 AOI22X1_5
*416 NAND2X1_112
*417 NAND2X1_86
*418 OAI21X1_130
*419 NAND2X1_90
*420 AOI21X1_28
*421 NAND2X1_88
*422 AOI22X1_3
*423 NAND2X1_91
*424 AOI21X1_40
*425 _128__bF_buf6
*426 BUFX4_11
*427 NAND2X1_78
*428 NAND2X1_84
*429 AOI22X1_2
*430 AOI21X1_21
*431 AOI21X1_35
*432 AOI22X1_4
*433 NAND2X1_110
*434 OAI21X1_152
*435 OAI21X1_157
*436 NAND2X1_114
*437 _128__bF_buf5
*438 BUFX4_12
*439 NAND2X1_96
*440 OAI21X1_136
*441 NAND2X1_98
*442 OAI21X1_138
*443 NAND2X1_99
*444 NAND2X1_30
*445 OAI21X1_40
*446 AOI21X1_12
*447 OAI21X1_141
*448 NAND2X1_10
*449 _128__bF_buf4
*450 BUFX4_13
*451 NAND2X1_95
*452 NAND2X1_100
*453 NAND2X1_101
*454 OAI21X1_135
*455 OAI21X1_140
*456 OAI21X1_150
*457 NAND2X1_109
*458 NAND2X1_107
*459 OAI21X1_137
*460 NAND2X1_97
*461 _128__bF_buf3
*462 BUFX4_14
*463 OAI21X1_139
*464 AOI22X1_1
*465 NOR2X1_33
*466 AOI21X1_8
*467 OAI21X1_14
*468 NAND2X1_14
*469 OAI21X1_86
*470 NAND2X1_50
*471 NAND2X1_49
*472 OAI21X1_89
*473 _128__bF_buf2
*474 BUFX4_15
*475 NAND2X1_17
*476 NAND2X1_35
*477 OAI21X1_62
*478 NAND2X1_9
*479 NAND2X1_5
*480 OAI21X1_7
*481 NAND2X1_34
*482 OAI21X1_6
*483 OAI21X1_61
*484 OAI21X1_31
*485 start
*486 BUFX4_3
*487 BUFX4_2
*488 BUFX4_8
*489 BUFX4_6
*490 BUFX4_7
*491 BUFX4_9
*492 BUFX4_5
*493 BUFX4_4
*494 BUFX4_1
*495 _128__bF_buf1
*496 BUFX4_16
*497 NAND2X1_37
*498 OAI21X1_37
*499 NAND2X1_22
*500 OAI21X1_33
*501 OAI21X1_65
*502 NAND2X1_16
*503 OAI21X1_29
*504 OAI21X1_11
*505 NAND2X1_23
*506 _128__bF_buf0
*507 BUFX4_17
*508 NAND2X1_46
*509 OAI21X1_77
*510 NAND2X1_47
*511 NAND2X1_42
*512 NAND2X1_43
*513 OR2X2_4
*514 AND2X2_6
*515 AND2X2_9
*516 NAND2X1_52
*517 X3_real[10]
*518 DFFPOSX1_35
*519 INVX1_95
*520 NAND3X1_306
*521 AOI21X1_143
*522 NAND2X1_412
*523 AOI22X1_50
*524 NAND2X1_413
*525 INVX1_275
*526 NAND3X1_272
*527 OAI21X1_336
*528 X1_real[10]
*529 DFFPOSX1_11
*530 INVX1_103
*531 OAI21X1_220
*532 NAND3X1_81
*533 INVX1_189
*534 NAND3X1_115
*535 AOI21X1_79
*536 NAND2X1_240
*537 AOI22X1_24
*538 NAND2X1_241
*539 _128_
*540 INVX8_1
*541 BUFX4_14
*542 BUFX4_17
*543 BUFX4_10
*544 BUFX4_11
*545 BUFX4_12
*546 BUFX4_13
*547 BUFX4_15
*548 BUFX4_16
*549 _195_
*550 OAI21X1_16
*551 OAI21X1_22
*552 OAI21X1_17
*553 OAI21X1_21
*554 OAI21X1_23
*555 OAI21X1_18
*556 OAI21X1_20
*557 OAI21X1_19
*558 OAI21X1_24
*559 _308_
*560 NAND2X1_33
*561 OAI21X1_53
*562 OAI21X1_54
*563 OAI21X1_55
*564 OAI21X1_51
*565 OAI21X1_49
*566 OAI21X1_56
*567 OAI21X1_52
*568 OAI21X1_50
*569 X3_imag[8]
*570 DFFPOSX1_41
*571 NAND2X1_42
*572 NAND2X1_383
*573 AND2X2_45
*574 NAND2X1_406
*575 NAND3X1_267
*576 INVX2_35
*577 NOR2X1_200
*578 NAND2X1_432
*579 X2_real[10]
*580 DFFPOSX1_27
*581 NAND2X1_86
*582 NAND2X1_129
*583 NAND2X1_139
*584 AOI22X1_10
*585 OAI21X1_182
*586 NAND2X1_142
*587 OAI21X1_166
*588 INVX1_139
*589 X1_imag[8]
*590 DFFPOSX1_17
*591 NOR2X1_133
*592 NAND2X1_95
*593 NAND3X1_76
*594 INVX2_17
*595 NAND2X1_211
*596 NAND2X1_234
*597 AND2X2_28
*598 NAND2X1_255
*599 X3_imag[11]
*600 DFFPOSX1_44
*601 NAND2X1_47
*602 AOI21X1_154
*603 OAI21X1_373
*604 INVX2_41
*605 OAI21X1_347
*606 NAND3X1_268
*607 AOI21X1_138
*608 X3_real[11]
*609 DFFPOSX1_36
*610 INVX1_96
*611 NAND3X1_306
*612 AOI21X1_143
*613 NAND2X1_390
*614 AOI22X1_50
*615 NAND2X1_413
*616 NAND2X1_370
*617 X3_real[12]
*618 DFFPOSX1_37
*619 INVX1_97
*620 NAND3X1_306
*621 AOI21X1_143
*622 NAND2X1_412
*623 AOI22X1_50
*624 NAND2X1_388
*625 INVX1_291
*626 X3_real[14]
*627 DFFPOSX1_39
*628 INVX1_99
*629 NAND2X1_425
*630 AOI22X1_52
*631 NAND3X1_299
*632 NAND2X1_418
*633 AND2X2_46
*634 INVX1_299
*635 X1_real[11]
*636 DFFPOSX1_12
*637 INVX1_104
*638 NAND3X1_115
*639 AOI21X1_79
*640 AOI22X1_24
*641 NAND2X1_241
*642 NAND2X1_218
*643 NAND2X1_198
*644 X1_real[12]
*645 DFFPOSX1_13
*646 INVX1_105
*647 INVX1_204
*648 NAND3X1_115
*649 AOI21X1_79
*650 NAND2X1_240
*651 AOI22X1_24
*652 NAND2X1_216
*653 _488_
*654 NOR2X1_69
*655 AOI21X1_32
*656 OAI21X1_118
*657 OAI21X1_116
*658 NOR2X1_75
*659 NAND2X1_111
*660 INVX1_117
*661 NOR2X1_96
*662 X2_real[9]
*663 DFFPOSX1_26
*664 NAND2X1_84
*665 NAND2X1_175
*666 NAND2X1_170
*667 AOI22X1_10
*668 NAND2X1_141
*669 OAI21X1_166
*670 INVX2_10
*671 _516_
*672 NOR2X1_78
*673 XNOR2X1_16
*674 AOI21X1_34
*675 NAND2X1_113
*676 NOR2X1_85
*677 NOR2X1_79
*678 OAI21X1_122
*679 AND2X2_14
*680 _524_
*681 NOR2X1_83
*682 OR2X2_5
*683 AOI21X1_35
*684 OAI21X1_124
*685 INVX1_120
*686 NAND2X1_113
*687 AOI21X1_36
*688 NOR2X1_85
*689 _538_
*690 NOR2X1_88
*691 OAI21X1_156
*692 OAI21X1_154
*693 AND2X2_16
*694 AOI21X1_24
*695 NOR2X1_89
*696 INVX1_123
*697 NAND2X1_92
*698 X1_imag[11]
*699 DFFPOSX1_20
*700 NAND2X1_98
*701 NAND3X1_77
*702 AOI21X1_74
*703 INVX2_23
*704 OAI21X1_231
*705 AOI21X1_90
*706 OAI21X1_257
*707 X0_real[10]
*708 DFFPOSX1_3
*709 NAND2X1_110
*710 AOI21X1_111
*711 NAND2X1_328
*712 AOI22X1_35
*713 NAND3X1_207
*714 INVX2_33
*715 OAI21X1_279
*716 X0_real[11]
*717 DFFPOSX1_4
*718 NAND2X1_285
*719 INVX1_131
*720 AOI21X1_111
*721 AOI22X1_35
*722 NAND3X1_207
*723 NAND2X1_305
*724 NAND3X1_180
*725 X0_real[12]
*726 DFFPOSX1_5
*727 NAND2X1_112
*728 INVX1_242
*729 NAND2X1_303
*730 AOI21X1_111
*731 AOI22X1_35
*732 NAND3X1_207
*733 NAND2X1_328
*734 _1368_
*735 AND2X2_22
*736 OAI21X1_192
*737 OAI21X1_191
*738 NOR2X1_119
*739 OAI21X1_203
*740 OAI21X1_189
*741 OAI21X1_204
*742 OAI21X1_206
*743 _1563_
*744 INVX2_17
*745 NOR2X1_142
*746 OAI21X1_225
*747 NAND2X1_190
*748 NOR2X1_132
*749 NOR2X1_136
*750 NOR2X1_137
*751 OAI21X1_226
*752 _1729_
*753 AOI22X1_21
*754 OAI21X1_267
*755 OAI21X1_244
*756 OAI21X1_246
*757 INVX2_25
*758 OAI21X1_264
*759 OAI21X1_245
*760 OAI21X1_257
*761 _581_
*762 AOI22X1_33
*763 OAI21X1_302
*764 OAI21X1_314
*765 NOR2X1_190
*766 OAI21X1_315
*767 OAI21X1_300
*768 NOR3X1_8
*769 INVX1_251
*770 _834_
*771 INVX2_35
*772 NOR2X1_199
*773 NAND2X1_362
*774 OAI21X1_341
*775 NOR2X1_209
*776 OAI21X1_342
*777 NOR2X1_203
*778 NOR2X1_204
*779 _1016_
*780 AOI22X1_47
*781 OAI21X1_360
*782 INVX2_43
*783 OAI21X1_362
*784 OAI21X1_373
*785 OAI21X1_377
*786 OAI21X1_361
*787 OAI21X1_384
*788 butterfly_re_part[0][3]
*789 DFFPOSX1_52
*790 NAND2X1_104
*791 NAND2X1_22
*792 XNOR2X1_13
*793 INVX1_112
*794 OAI21X1_108
*795 NAND2X1_66
*796 butterfly_re_part[0][5]
*797 DFFPOSX1_54
*798 NAND2X1_23
*799 NAND2X1_106
*800 INVX1_114
*801 NAND2X1_80
*802 OAI21X1_111
*803 XNOR2X1_12
*804 butterfly_re_part[1][3]
*805 DFFPOSX1_68
*806 INVX1_111
*807 NAND2X1_67
*808 XNOR2X1_13
*809 NAND2X1_104
*810 OAI21X1_109
*811 NAND2X1_35
*812 butterfly_re_part[1][5]
*813 DFFPOSX1_70
*814 NAND2X1_37
*815 NAND2X1_106
*816 XNOR2X1_12
*817 NAND2X1_81
*818 OAI21X1_110
*819 INVX1_113
*820 X3_imag[10]
*821 DFFPOSX1_43
*822 NAND2X1_46
*823 AOI22X1_47
*824 NAND2X1_405
*825 NOR2X1_222
*826 INVX2_39
*827 OAI21X1_346
*828 X3_imag[12]
*829 DFFPOSX1_45
*830 NAND2X1_49
*831 NAND2X1_405
*832 AOI22X1_47
*833 NAND2X1_382
*834 INVX1_279
*835 OAI21X1_347
*836 _396_
*837 NAND3X1_7
*838 OAI21X1_85
*839 OAI21X1_84
*840 NOR2X1_62
*841 NOR3X1_1
*842 OAI21X1_82
*843 AND2X2_11
*844 X3_real[13]
*845 DFFPOSX1_38
*846 INVX1_98
*847 AOI22X1_52
*848 AND2X2_47
*849 NAND2X1_417
*850 NAND2X1_415
*851 NAND3X1_300
*852 X1_real[14]
*853 DFFPOSX1_15
*854 INVX1_107
*855 NAND2X1_253
*856 NAND2X1_246
*857 AND2X2_29
*858 INVX1_213
*859 NAND3X1_108
*860 X2_real[11]
*861 DFFPOSX1_28
*862 INVX1_119
*863 NAND2X1_128
*864 AOI22X1_10
*865 INVX1_153
*866 NAND2X1_141
*867 NAND2X1_142
*868 X1_imag[10]
*869 DFFPOSX1_19
*870 NAND2X1_97
*871 AOI22X1_21
*872 NAND2X1_233
*873 INVX2_21
*874 NOR2X1_155
*875 OAI21X1_230
*876 X1_imag[12]
*877 DFFPOSX1_21
*878 NAND2X1_99
*879 INVX1_193
*880 NAND2X1_233
*881 AOI22X1_21
*882 OAI21X1_231
*883 NAND2X1_210
*884 _2062_
*885 INVX2_8
*886 NOR2X1_101
*887 NOR2X1_105
*888 NAND2X1_116
*889 OAI21X1_171
*890 NOR2X1_110
*891 OAI21X1_170
*892 _2073_
*893 INVX2_9
*894 NOR2X1_101
*895 OAI21X1_199
*896 NOR2X1_122
*897 OAI21X1_195
*898 OAI21X1_181
*899 OAI21X1_169
*900 _660_
*901 NAND2X1_117
*902 OAI21X1_173
*903 INVX1_136
*904 OAI21X1_164
*905 OAI21X1_165
*906 AOI21X1_41
*907 OAI21X1_163
*908 _1367_
*909 NOR2X1_118
*910 OAI21X1_192
*911 OAI21X1_191
*912 NOR2X1_119
*913 OAI21X1_203
*914 OAI21X1_189
*915 INVX1_180
*916 _1377_
*917 AOI22X1_7
*918 OAI21X1_193
*919 NOR3X1_2
*920 INVX1_166
*921 OAI22X1_17
*922 NOR2X1_127
*923 OAI22X1_16
*924 _1658_
*925 NAND3X1_86
*926 OAI21X1_241
*927 AOI22X1_17
*928 NAND2X1_230
*929 OAI21X1_273
*930 AOI22X1_20
*931 NOR2X1_153
*932 _1728_
*933 OR2X2_19
*934 OAI21X1_267
*935 NAND3X1_102
*936 NAND3X1_99
*937 NAND3X1_103
*938 NAND3X1_100
*939 OAI21X1_264
*940 _1759_
*941 NAND2X1_240
*942 OAI21X1_262
*943 NAND3X1_112
*944 NAND3X1_110
*945 OAI22X1_18
*946 OAI21X1_249
*947 INVX2_26
*948 _1773_
*949 NAND2X1_245
*950 NOR2X1_159
*951 OAI21X1_259
*952 NAND3X1_116
*953 OAI21X1_252
*954 OAI21X1_250
*955 NAND3X1_108
*956 _1954_
*957 INVX2_27
*958 NOR2X1_163
*959 NAND2X1_278
*960 NOR2X1_169
*961 OAI21X1_284
*962 NOR2X1_177
*963 NOR2X1_167
*964 _582_
*965 NAND2X1_321
*966 OAI21X1_314
*967 NOR2X1_191
*968 INVX1_253
*969 NAND2X1_325
*970 OAI21X1_300
*971 NOR3X1_8
*972 _614_
*973 NAND2X1_328
*974 OAI22X1_20
*975 OAI21X1_305
*976 NAND3X1_204
*977 NAND3X1_202
*978 INVX1_257
*979 OAI21X1_320
*980 _938_
*981 NAND3X1_277
*982 OAI21X1_357
*983 OAI21X1_390
*984 NOR2X1_220
*985 AOI22X1_43
*986 AOI22X1_46
*987 NAND2X1_402
*988 _1015_
*989 OR2X2_32
*990 NAND3X1_294
*991 NAND3X1_293
*992 NAND3X1_290
*993 OAI21X1_384
*994 OAI21X1_377
*995 NAND3X1_291
*996 _1049_
*997 NAND2X1_412
*998 OAI22X1_21
*999 OAI21X1_365
*1000 INVX2_44
*1001 NAND3X1_301
*1002 NAND3X1_303
*1003 OAI21X1_376
*1004 _1057_
*1005 OAI22X1_21
*1006 NAND3X1_350
*1007 NAND3X1_345
*1008 NAND3X1_302
*1009 NAND3X1_310
*1010 AOI21X1_152
*1011 XNOR2X1_49
*1012 _1064_
*1013 NAND2X1_417
*1014 OAI21X1_366
*1015 OAI21X1_379
*1016 NAND3X1_299
*1017 OAI21X1_368
*1018 NAND3X1_307
*1019 NOR2X1_224
*1020 _135_
*1021 NAND2X1_4
*1022 NOR2X1_6
*1023 AOI21X1_9
*1024 NAND3X1_5
*1025 XNOR2X1_10
*1026 INVX1_8
*1027 _145_
*1028 NAND2X1_8
*1029 XNOR2X1_3
*1030 NOR2X1_6
*1031 AOI21X1_10
*1032 XOR2X1_2
*1033 NAND3X1_5
*1034 _153_
*1035 NOR2X1_5
*1036 NAND2X1_11
*1037 INVX1_15
*1038 OAI21X1_63
*1039 NAND2X1_36
*1040 OAI21X1_64
*1041 butterfly_re_part[3][8]
*1042 DFFPOSX1_97
*1043 NOR2X1_58
*1044 NOR2X1_60
*1045 INVX1_24
*1046 OAI21X1_76
*1047 OAI21X1_74
*1048 butterfly_re_part[3][12]
*1049 DFFPOSX1_101
*1050 OAI21X1_84
*1051 NOR2X1_62
*1052 INVX1_28
*1053 OAI21X1_82
*1054 AND2X2_11
*1055 butterfly_re_part[0][1]
*1056 DFFPOSX1_50
*1057 NAND2X1_16
*1058 NAND2X1_62
*1059 NOR2X1_64
*1060 NAND2X1_103
*1061 XNOR2X1_11
*1062 X1_real[13]
*1063 DFFPOSX1_14
*1064 INVX1_106
*1065 NAND2X1_245
*1066 AND2X2_30
*1067 NAND3X1_109
*1068 NAND2X1_243
*1069 _505_
*1070 NOR2X1_74
*1071 AOI21X1_33
*1072 OAI21X1_121
*1073 INVX2_5
*1074 NAND2X1_111
*1075 NOR2X1_75
*1076 _42_
*1077 INVX2_7
*1078 OAI21X1_134
*1079 OAI21X1_132
*1080 AND2X2_17
*1081 NOR2X1_99
*1082 AOI21X1_39
*1083 X0_real[14]
*1084 DFFPOSX1_7
*1085 OR2X2_6
*1086 INVX1_258
*1087 AND2X2_37
*1088 NAND2X1_342
*1089 NAND2X1_334
*1090 _573_
*1091 INVX2_10
*1092 OAI21X1_183
*1093 NOR2X1_106
*1094 OAI21X1_162
*1095 NOR2X1_104
*1096 NAND2X1_129
*1097 _1036_
*1098 NAND2X1_128
*1099 OAI21X1_201
*1100 OAI21X1_196
*1101 INVX1_150
*1102 XOR2X1_6
*1103 XNOR2X1_19
*1104 _1265_
*1105 NAND2X1_134
*1106 INVX2_11
*1107 NAND3X1_31
*1108 AOI21X1_51
*1109 NAND3X1_17
*1110 NAND3X1_16
*1111 _1266_
*1112 INVX2_11
*1113 NOR2X1_117
*1114 OAI21X1_185
*1115 OAI21X1_174
*1116 AOI21X1_52
*1117 NAND3X1_30
*1118 _1271_
*1119 NAND3X1_17
*1120 NAND3X1_33
*1121 OAI21X1_184
*1122 INVX1_160
*1123 AOI21X1_69
*1124 NOR3X1_6
*1125 _1277_
*1126 NAND2X1_136
*1127 OAI21X1_178
*1128 OAI21X1_188
*1129 INVX1_145
*1130 NOR2X1_114
*1131 OAI21X1_187
*1132 _1284_
*1133 INVX2_12
*1134 OAI21X1_188
*1135 OAI21X1_178
*1136 NOR2X1_120
*1137 OAI21X1_190
*1138 OAI21X1_204
*1139 _1289_
*1140 NAND2X1_138
*1141 OAI21X1_188
*1142 NAND3X1_18
*1143 AOI21X1_44
*1144 AOI21X1_47
*1145 NAND3X1_21
*1146 _1296_
*1147 NAND2X1_139
*1148 OAI22X1_11
*1149 OAI21X1_197
*1150 OAI21X1_181
*1151 INVX2_13
*1152 XNOR2X1_26
*1153 _1369_
*1154 NAND2X1_156
*1155 OAI21X1_206
*1156 INVX1_163
*1157 OAI21X1_199
*1158 NAND2X1_157
*1159 OAI21X1_191
*1160 _1399_
*1161 INVX2_16
*1162 OAI21X1_196
*1163 OAI21X1_201
*1164 OAI21X1_199
*1165 NOR2X1_122
*1166 OAI21X1_195
*1167 _1415_
*1168 NAND2X1_164
*1169 NAND2X1_165
*1170 XOR2X1_10
*1171 NAND2X1_173
*1172 NAND2X1_178
*1173 INVX1_176
*1174 _1433_
*1175 AOI21X1_57
*1176 OAI21X1_211
*1177 OAI22X1_15
*1178 INVX1_183
*1179 NOR3X1_5
*1180 OAI22X1_13
*1181 _1441_
*1182 NAND3X1_43
*1183 NAND3X1_69
*1184 NAND3X1_47
*1185 NAND3X1_52
*1186 NAND3X1_71
*1187 AOI22X1_15
*1188 _1445_
*1189 NAND3X1_47
*1190 OAI21X1_214
*1191 INVX1_185
*1192 NAND3X1_74
*1193 AOI21X1_68
*1194 NAND3X1_51
*1195 _1469_
*1196 AOI21X1_61
*1197 OR2X2_14
*1198 INVX1_177
*1199 NAND2X1_176
*1200 NAND2X1_181
*1201 NAND2X1_182
*1202 _1598_
*1203 NAND3X1_79
*1204 AOI21X1_70
*1205 NAND3X1_80
*1206 NAND3X1_85
*1207 INVX1_198
*1208 OAI21X1_240
*1209 _1686_
*1210 NAND3X1_89
*1211 NAND2X1_231
*1212 OAI21X1_242
*1213 INVX1_218
*1214 AOI22X1_18
*1215 AOI22X1_20
*1216 _1730_
*1217 INVX2_25
*1218 NAND3X1_102
*1219 NAND3X1_99
*1220 NAND3X1_103
*1221 NAND3X1_100
*1222 AOI21X1_90
*1223 _1731_
*1224 NAND2X1_234
*1225 OAI21X1_267
*1226 OAI21X1_260
*1227 OAI21X1_246
*1228 NAND3X1_99
*1229 OAI21X1_253
*1230 _1733_
*1231 NOR2X1_154
*1232 OAI21X1_246
*1233 OAI21X1_244
*1234 AOI21X1_90
*1235 OAI21X1_245
*1236 OAI21X1_257
*1237 _1767_
*1238 OAI22X1_18
*1239 XNOR2X1_34
*1240 NAND3X1_119
*1241 NAND3X1_111
*1242 AOI21X1_91
*1243 NAND3X1_160
*1244 _1837_
*1245 NAND3X1_146
*1246 NOR2X1_160
*1247 OR2X2_20
*1248 OAI21X1_273
*1249 AOI22X1_27
*1250 NAND3X1_150
*1251 _580_
*1252 NOR2X1_189
*1253 OAI21X1_300
*1254 NOR3X1_8
*1255 NOR2X1_190
*1256 OAI21X1_326
*1257 OAI21X1_302
*1258 _622_
*1259 OAI22X1_20
*1260 NAND2X1_335
*1261 NAND3X1_203
*1262 NAND3X1_211
*1263 INVX1_259
*1264 AOI21X1_123
*1265 _629_
*1266 NAND2X1_331
*1267 OAI21X1_306
*1268 OAI21X1_317
*1269 OAI21X1_308
*1270 NOR2X1_195
*1271 NAND2X1_332
*1272 _635_
*1273 NAND3X1_203
*1274 OAI21X1_321
*1275 NAND3X1_243
*1276 NAND3X1_245
*1277 NAND3X1_209
*1278 NAND3X1_214
*1279 _648_
*1280 NAND3X1_209
*1281 NAND3X1_245
*1282 NAND3X1_243
*1283 NAND3X1_218
*1284 NAND3X1_213
*1285 AOI21X1_119
*1286 _872_
*1287 NAND3X1_270
*1288 AOI21X1_134
*1289 NAND3X1_271
*1290 OAI21X1_356
*1291 NAND3X1_276
*1292 INVX1_284
*1293 _969_
*1294 NAND3X1_280
*1295 INVX1_304
*1296 AOI22X1_44
*1297 AOI22X1_46
*1298 NAND2X1_403
*1299 OAI21X1_358
*1300 _1017_
*1301 INVX2_43
*1302 AOI21X1_154
*1303 NAND3X1_291
*1304 NAND3X1_294
*1305 NAND3X1_293
*1306 NAND3X1_290
*1307 _1018_
*1308 NAND2X1_406
*1309 OAI21X1_384
*1310 OAI21X1_362
*1311 NAND3X1_290
*1312 OAI21X1_369
*1313 OAI21X1_380
*1314 _1020_
*1315 NOR2X1_221
*1316 OAI21X1_360
*1317 OAI21X1_362
*1318 OAI21X1_373
*1319 AOI21X1_154
*1320 OAI21X1_361
*1321 _1073_
*1322 AOI22X1_51
*1323 OAI21X1_382
*1324 OAI21X1_378
*1325 NAND3X1_309
*1326 NAND3X1_305
*1327 AOI21X1_156
*1328 _1134_
*1329 NAND3X1_337
*1330 OAI21X1_390
*1331 NAND3X1_341
*1332 AOI22X1_54
*1333 OR2X2_34
*1334 NOR2X1_226
*1335 x1[0]
*1336 INVX1_3
*1337 OAI21X1_3
*1338 NAND3X1_3
*1339 NOR2X1_1
*1340 x3[1]
*1341 INVX1_74
*1342 OAI21X1_5
*1343 XNOR2X1_1
*1344 XOR2X1_1
*1345 _158_
*1346 AOI21X1_2
*1347 OAI21X1_9
*1348 AND2X2_1
*1349 OAI21X1_10
*1350 OAI21X1_12
*1351 _167_
*1352 NOR2X1_8
*1353 OAI21X1_66
*1354 NOR2X1_9
*1355 OAI21X1_68
*1356 AOI21X1_3
*1357 _168_
*1358 NOR2X1_9
*1359 XNOR2X1_4
*1360 NAND2X1_11
*1361 AOI21X1_3
*1362 XOR2X1_3
*1363 _176_
*1364 INVX2_1
*1365 NOR2X1_11
*1366 OAI21X1_13
*1367 NOR2X1_47
*1368 OAI21X1_71
*1369 _178_
*1370 NOR2X1_12
*1371 INVX1_79
*1372 NAND2X1_38
*1373 NAND2X1_12
*1374 NOR2X1_13
*1375 _196_
*1376 INVX2_2
*1377 AND2X2_10
*1378 NAND2X1_44
*1379 OAI21X1_18
*1380 OAI21X1_136
*1381 _197_
*1382 INVX2_3
*1383 OAI21X1_19
*1384 OAI21X1_137
*1385 AOI21X1_14
*1386 NOR2X1_59
*1387 _200_
*1388 INVX2_4
*1389 NAND2X1_51
*1390 AOI21X1_15
*1391 OAI21X1_22
*1392 OAI21X1_140
*1393 _232_
*1394 NAND2X1_21
*1395 AOI21X1_7
*1396 INVX1_40
*1397 OAI21X1_34
*1398 OAI21X1_42
*1399 _240_
*1400 AOI21X1_4
*1401 OAI21X1_36
*1402 OAI21X1_38
*1403 OAI21X1_35
*1404 AND2X2_3
*1405 _244_
*1406 NOR2X1_26
*1407 AOI21X1_5
*1408 NOR2X1_27
*1409 INVX1_46
*1410 OAI21X1_45
*1411 _254_
*1412 NOR2X1_29
*1413 AOI21X1_5
*1414 NAND2X1_24
*1415 INVX1_60
*1416 XNOR2X1_8
*1417 butterfly_re_part[0][6]
*1418 DFFPOSX1_55
*1419 NAND3X1_9
*1420 NAND2X1_74
*1421 INVX1_47
*1422 XOR2X1_4
*1423 x2[6]
*1424 NAND2X1_31
*1425 INVX1_49
*1426 NAND2X1_25
*1427 OAI21X1_47
*1428 butterfly_re_part[0][7]
*1429 DFFPOSX1_56
*1430 NAND2X1_30
*1431 NAND2X1_76
*1432 NAND2X1_108
*1433 INVX1_116
*1434 _287_
*1435 INVX1_59
*1436 NOR2X1_100
*1437 NOR2X1_39
*1438 NOR2X1_93
*1439 NAND2X1_93
*1440 butterfly_re_part[1][2]
*1441 DFFPOSX1_67
*1442 NOR2X1_65
*1443 NAND2X1_34
*1444 INVX1_110
*1445 NAND2X1_64
*1446 _333_
*1447 AND2X2_8
*1448 OAI21X1_64
*1449 NOR2X1_45
*1450 OAI21X1_63
*1451 NAND2X1_36
*1452 butterfly_re_part[1][7]
*1453 DFFPOSX1_72
*1454 INVX1_80
*1455 NAND2X1_108
*1456 NAND2X1_77
*1457 OAI21X1_113
*1458 _375_
*1459 NAND2X1_41
*1460 NOR2X1_58
*1461 OAI21X1_80
*1462 OAI21X1_76
*1463 OAI21X1_74
*1464 X3_imag[13]
*1465 DFFPOSX1_46
*1466 NAND2X1_50
*1467 NAND2X1_404
*1468 AOI22X1_47
*1469 NAND2X1_383
*1470 _471_
*1471 NAND2X1_77
*1472 NAND3X1_9
*1473 AOI21X1_30
*1474 AND2X2_12
*1475 NAND2X1_79
*1476 X2_real[12]
*1477 DFFPOSX1_29
*1478 NAND2X1_88
*1479 NAND2X1_139
*1480 AOI22X1_10
*1481 INVX1_152
*1482 _26_
*1483 NOR2X1_92
*1484 AOI21X1_25
*1485 INVX2_6
*1486 NOR2X1_98
*1487 NAND2X1_92
*1488 X1_imag[13]
*1489 DFFPOSX1_22
*1490 NAND2X1_100
*1491 AOI22X1_21
*1492 NAND2X1_232
*1493 NAND2X1_211
*1494 _75_
*1495 OAI21X1_147
*1496 AOI21X1_32
*1497 INVX1_130
*1498 NOR2X1_96
*1499 AOI21X1_37
*1500 _96_
*1501 AOI21X1_37
*1502 AND2X2_16
*1503 OAI21X1_156
*1504 OAI21X1_159
*1505 OAI21X1_154
*1506 X0_real[13]
*1507 DFFPOSX1_6
*1508 AND2X2_38
*1509 NAND2X1_331
*1510 NAND2X1_329
*1511 NAND2X1_114
*1512 _693_
*1513 NAND2X1_119
*1514 OAI21X1_168
*1515 OAI21X1_163
*1516 NAND2X1_123
*1517 OR2X2_8
*1518 _939_
*1519 OR2X2_9
*1520 NAND3X1_16
*1521 NAND3X1_15
*1522 AOI21X1_42
*1523 OAI21X1_185
*1524 _1025_
*1525 OAI21X1_169
*1526 XNOR2X1_20
*1527 OR2X2_12
*1528 NAND2X1_135
*1529 NOR2X1_113
*1530 _1222_
*1531 OR2X2_10
*1532 NAND2X1_133
*1533 INVX1_159
*1534 NAND3X1_29
*1535 NAND3X1_24
*1536 _1278_
*1537 NAND2X1_137
*1538 OAI21X1_181
*1539 INVX1_146
*1540 NOR2X1_114
*1541 OAI21X1_187
*1542 _1279_
*1543 NOR2X1_114
*1544 NAND3X1_68
*1545 NAND2X1_151
*1546 OAI21X1_179
*1547 NOR2X1_116
*1548 _1290_
*1549 OAI21X1_179
*1550 NAND3X1_18
*1551 AOI21X1_44
*1552 AOI21X1_47
*1553 NAND3X1_21
*1554 _1298_
*1555 NAND3X1_19
*1556 INVX1_165
*1557 NOR3X1_2
*1558 OAI21X1_193
*1559 NAND2X1_140
*1560 _1300_
*1561 NAND2X1_140
*1562 OAI21X1_194
*1563 NAND2X1_148
*1564 INVX1_154
*1565 NAND2X1_144
*1566 _1323_
*1567 INVX2_14
*1568 NAND2X1_151
*1569 OAI22X1_8
*1570 NAND3X1_68
*1571 OAI22X1_9
*1572 _1341_
*1573 AOI21X1_51
*1574 NOR3X1_6
*1575 OAI21X1_184
*1576 AOI21X1_68
*1577 NAND3X1_51
*1578 _1347_
*1579 NAND3X1_30
*1580 NAND3X1_32
*1581 AOI22X1_6
*1582 AOI21X1_59
*1583 NAND3X1_54
*1584 _1363_
*1585 OAI21X1_188
*1586 AOI21X1_56
*1587 INVX2_15
*1588 NOR3X1_3
*1589 OAI21X1_210
*1590 _1364_
*1591 INVX2_15
*1592 AOI21X1_53
*1593 OAI21X1_209
*1594 NOR3X1_4
*1595 NAND3X1_63
*1596 _1372_
*1597 NOR2X1_119
*1598 NAND2X1_159
*1599 NAND2X1_157
*1600 OAI21X1_190
*1601 NAND2X1_160
*1602 _1388_
*1603 NAND3X1_34
*1604 NAND3X1_63
*1605 AOI21X1_53
*1606 OAI21X1_209
*1607 AOI21X1_56
*1608 _1392_
*1609 AOI22X1_9
*1610 NOR3X1_4
*1611 OAI21X1_210
*1612 NOR3X1_3
*1613 OAI21X1_209
*1614 _1395_
*1615 OAI21X1_194
*1616 AOI21X1_58
*1617 INVX1_173
*1618 NAND3X1_65
*1619 AOI21X1_54
*1620 _1402_
*1621 NOR2X1_121
*1622 INVX1_171
*1623 AOI21X1_61
*1624 OAI21X1_200
*1625 OAI21X1_198
*1626 _1408_
*1627 OAI21X1_198
*1628 NAND3X1_36
*1629 NAND3X1_39
*1630 NAND2X1_169
*1631 INVX1_178
*1632 _1417_
*1633 OR2X2_13
*1634 NOR2X1_128
*1635 NOR2X1_124
*1636 NAND2X1_167
*1637 AND2X2_23
*1638 _1427_
*1639 NAND3X1_39
*1640 NAND2X1_169
*1641 NAND3X1_64
*1642 AOI21X1_55
*1643 AOI21X1_58
*1644 _1430_
*1645 OAI22X1_12
*1646 NAND3X1_62
*1647 AOI21X1_64
*1648 NAND3X1_41
*1649 NAND3X1_44
*1650 _1436_
*1651 NAND3X1_41
*1652 NAND3X1_43
*1653 NAND3X1_68
*1654 NAND3X1_48
*1655 XNOR2X1_30
*1656 _1460_
*1657 XNOR2X1_25
*1658 XNOR2X1_28
*1659 XOR2X1_8
*1660 XOR2X1_9
*1661 XNOR2X1_27
*1662 _1471_
*1663 AND2X2_24
*1664 XNOR2X1_28
*1665 OR2X2_14
*1666 NAND2X1_182
*1667 XOR2X1_9
*1668 _1564_
*1669 INVX2_18
*1670 NOR2X1_132
*1671 NOR2X1_150
*1672 OAI21X1_253
*1673 OAI21X1_250
*1674 _1566_
*1675 INVX2_19
*1676 NOR2X1_135
*1677 NOR2X1_139
*1678 OAI21X1_234
*1679 NAND3X1_81
*1680 _1569_
*1681 INVX2_20
*1682 NAND3X1_76
*1683 OAI21X1_217
*1684 NOR2X1_138
*1685 OAI21X1_222
*1686 _1573_
*1687 INVX2_21
*1688 OAI21X1_258
*1689 OAI21X1_227
*1690 NOR2X1_136
*1691 NOR2X1_143
*1692 _1575_
*1693 INVX2_22
*1694 OAI21X1_219
*1695 OAI21X1_217
*1696 OAI21X1_222
*1697 NOR2X1_138
*1698 _1580_
*1699 INVX2_23
*1700 NOR2X1_137
*1701 NOR2X1_155
*1702 OAI21X1_243
*1703 OAI21X1_264
*1704 _1587_
*1705 NOR2X1_139
*1706 OAI21X1_233
*1707 AOI22X1_16
*1708 NOR2X1_140
*1709 OAI21X1_221
*1710 _1607_
*1711 NAND2X1_198
*1712 NOR2X1_148
*1713 OAI21X1_232
*1714 INVX1_192
*1715 OAI21X1_224
*1716 _1623_
*1717 NOR2X1_144
*1718 INVX1_195
*1719 NAND3X1_94
*1720 NAND3X1_90
*1721 AOI21X1_82
*1722 _1626_
*1723 NAND2X1_203
*1724 INVX1_196
*1725 NAND2X1_209
*1726 NAND2X1_207
*1727 OAI21X1_229
*1728 _1640_
*1729 AOI21X1_71
*1730 OAI21X1_228
*1731 NOR2X1_152
*1732 AOI22X1_27
*1733 AOI21X1_76
*1734 _1643_
*1735 AOI21X1_73
*1736 NOR2X1_162
*1737 XOR2X1_13
*1738 NAND3X1_98
*1739 AOI22X1_26
*1740 _1647_
*1741 NAND2X1_210
*1742 INVX1_200
*1743 OAI21X1_241
*1744 NOR2X1_145
*1745 OAI21X1_243
*1746 _1648_
*1747 NAND2X1_211
*1748 INVX1_201
*1749 NOR2X1_145
*1750 OAI21X1_241
*1751 OAI21X1_232
*1752 _1666_
*1753 INVX2_24
*1754 NAND3X1_105
*1755 AOI21X1_78
*1756 NOR2X1_149
*1757 OAI21X1_235
*1758 _1677_
*1759 NAND3X1_87
*1760 NAND3X1_89
*1761 NAND2X1_220
*1762 NAND3X1_88
*1763 NAND2X1_239
*1764 _1689_
*1765 OAI21X1_236
*1766 NAND3X1_93
*1767 NAND3X1_90
*1768 NAND2X1_228
*1769 INVX1_219
*1770 _1701_
*1771 NAND3X1_93
*1772 NAND2X1_225
*1773 AOI21X1_77
*1774 NAND3X1_96
*1775 NAND3X1_95
*1776 _1702_
*1777 NAND3X1_94
*1778 NAND2X1_225
*1779 AOI21X1_77
*1780 NAND3X1_95
*1781 NAND3X1_96
*1782 _1720_
*1783 NAND2X1_229
*1784 NAND3X1_145
*1785 NAND3X1_147
*1786 INVX1_209
*1787 OAI21X1_256
*1788 _1734_
*1789 AND2X2_28
*1790 NAND3X1_102
*1791 OAI21X1_244
*1792 NAND3X1_154
*1793 NAND2X1_249
*1794 _1758_
*1795 NAND2X1_239
*1796 NAND3X1_130
*1797 NAND3X1_137
*1798 INVX1_217
*1799 AOI21X1_81
*1800 _1768_
*1801 INVX2_26
*1802 AOI22X1_25
*1803 NAND3X1_113
*1804 NAND3X1_107
*1805 AOI21X1_89
*1806 _1769_
*1807 AND2X2_29
*1808 NAND2X1_249
*1809 NAND3X1_154
*1810 NAND2X1_244
*1811 NOR2X1_158
*1812 _1770_
*1813 AND2X2_30
*1814 NAND2X1_244
*1815 NOR2X1_158
*1816 NAND3X1_120
*1817 OAI21X1_251
*1818 _1780_
*1819 NAND3X1_111
*1820 OAI21X1_266
*1821 NAND3X1_123
*1822 NAND3X1_117
*1823 NAND3X1_161
*1824 _1785_
*1825 NAND3X1_115
*1826 NAND3X1_120
*1827 INVX1_215