*SPICE netlist created from BLIF module fft_top by blif2BSpice
.include /usr/local/share/qflow/tech/osu035/osu035_stdcells.sp
.subckt fft_top vdd gnd clk reset start x0[0] x0[1] x0[2] x0[3] x0[4] x0[5] x0[6] x0[7] x1[0] x1[1] x1[2] x1[3] x1[4] x1[5] x1[6] x1[7] x2[0] x2[1] x2[2] x2[3] x2[4] x2[5] x2[6] x2[7] x3[0] x3[1] x3[2] x3[3] x3[4] x3[5] x3[6] x3[7] X0_mag[0] X0_mag[1] X0_mag[2] X0_mag[3] X0_mag[4] X0_mag[5] X0_mag[6] X0_mag[7] X1_mag[0] X1_mag[1] X1_mag[2] X1_mag[3] X1_mag[4] X1_mag[5] X1_mag[6] X1_mag[7] X2_mag[0] X2_mag[1] X2_mag[2] X2_mag[3] X2_mag[4] X2_mag[5] X2_mag[6] X2_mag[7] X3_mag[0] X3_mag[1] X3_mag[2] X3_mag[3] X3_mag[4] X3_mag[5] X3_mag[6] X3_mag[7] done 
XCLKBUF1_1 clk vdd gnd clk_bF$buf10 CLKBUF1
XCLKBUF1_2 clk vdd gnd clk_bF$buf9 CLKBUF1
XCLKBUF1_3 clk vdd gnd clk_bF$buf8 CLKBUF1
XCLKBUF1_4 clk vdd gnd clk_bF$buf7 CLKBUF1
XCLKBUF1_5 clk vdd gnd clk_bF$buf6 CLKBUF1
XCLKBUF1_6 clk vdd gnd clk_bF$buf5 CLKBUF1
XCLKBUF1_7 clk vdd gnd clk_bF$buf4 CLKBUF1
XCLKBUF1_8 clk vdd gnd clk_bF$buf3 CLKBUF1
XCLKBUF1_9 clk vdd gnd clk_bF$buf2 CLKBUF1
XCLKBUF1_10 clk vdd gnd clk_bF$buf1 CLKBUF1
XCLKBUF1_11 clk vdd gnd clk_bF$buf0 CLKBUF1
XBUFX4_1 vdd gnd start start_bF$buf8 BUFX4
XBUFX4_2 vdd gnd start start_bF$buf7 BUFX4
XBUFX4_3 vdd gnd start start_bF$buf6 BUFX4
XBUFX4_4 vdd gnd start start_bF$buf5 BUFX4
XBUFX4_5 vdd gnd start start_bF$buf4 BUFX4
XBUFX4_6 vdd gnd start start_bF$buf3 BUFX4
XBUFX4_7 vdd gnd start start_bF$buf2 BUFX4
XBUFX4_8 vdd gnd start start_bF$buf1 BUFX4
XBUFX4_9 vdd gnd start start_bF$buf0 BUFX4
XBUFX4_10 vdd gnd _128_ _128__bF$buf7 BUFX4
XBUFX4_11 vdd gnd _128_ _128__bF$buf6 BUFX4
XBUFX4_12 vdd gnd _128_ _128__bF$buf5 BUFX4
XBUFX4_13 vdd gnd _128_ _128__bF$buf4 BUFX4
XBUFX4_14 vdd gnd _128_ _128__bF$buf3 BUFX4
XBUFX4_15 vdd gnd _128_ _128__bF$buf2 BUFX4
XBUFX4_16 vdd gnd _128_ _128__bF$buf1 BUFX4
XBUFX4_17 vdd gnd _128_ _128__bF$buf0 BUFX4
XBUFX2_1 vdd gnd _0_[0] X0_mag[0] BUFX2
XBUFX2_2 vdd gnd _0_[1] X0_mag[1] BUFX2
XBUFX2_3 vdd gnd _0_[2] X0_mag[2] BUFX2
XBUFX2_4 vdd gnd _0_[3] X0_mag[3] BUFX2
XBUFX2_5 vdd gnd _0_[4] X0_mag[4] BUFX2
XBUFX2_6 vdd gnd _0_[5] X0_mag[5] BUFX2
XBUFX2_7 vdd gnd _0_[6] X0_mag[6] BUFX2
XBUFX2_8 vdd gnd _0_[7] X0_mag[7] BUFX2
XBUFX2_9 vdd gnd _1_[0] X1_mag[0] BUFX2
XBUFX2_10 vdd gnd _1_[1] X1_mag[1] BUFX2
XBUFX2_11 vdd gnd _1_[2] X1_mag[2] BUFX2
XBUFX2_12 vdd gnd _1_[3] X1_mag[3] BUFX2
XBUFX2_13 vdd gnd _1_[4] X1_mag[4] BUFX2
XBUFX2_14 vdd gnd _1_[5] X1_mag[5] BUFX2
XBUFX2_15 vdd gnd _1_[6] X1_mag[6] BUFX2
XBUFX2_16 vdd gnd _1_[7] X1_mag[7] BUFX2
XBUFX2_17 vdd gnd _2_[0] X2_mag[0] BUFX2
XBUFX2_18 vdd gnd _2_[1] X2_mag[1] BUFX2
XBUFX2_19 vdd gnd _2_[2] X2_mag[2] BUFX2
XBUFX2_20 vdd gnd _2_[3] X2_mag[3] BUFX2
XBUFX2_21 vdd gnd _2_[4] X2_mag[4] BUFX2
XBUFX2_22 vdd gnd _2_[5] X2_mag[5] BUFX2
XBUFX2_23 vdd gnd _2_[6] X2_mag[6] BUFX2
XBUFX2_24 vdd gnd _2_[7] X2_mag[7] BUFX2
XBUFX2_25 vdd gnd _3_[0] X3_mag[0] BUFX2
XBUFX2_26 vdd gnd _3_[1] X3_mag[1] BUFX2
XBUFX2_27 vdd gnd _3_[2] X3_mag[2] BUFX2
XBUFX2_28 vdd gnd _3_[3] X3_mag[3] BUFX2
XBUFX2_29 vdd gnd _3_[4] X3_mag[4] BUFX2
XBUFX2_30 vdd gnd _3_[5] X3_mag[5] BUFX2
XBUFX2_31 vdd gnd _3_[6] X3_mag[6] BUFX2
XBUFX2_32 vdd gnd _3_[7] X3_mag[7] BUFX2
XBUFX2_33 vdd gnd _4_ done BUFX2
XINVX1_1 butterfly.re_part[3][0] _116_ vdd gnd INVX1
XINVX1_2 x3[0] _117_ vdd gnd INVX1
XNOR2X1_1 vdd _117_ gnd _118_ x1[0] NOR2X1
XINVX1_3 x1[0] _119_ vdd gnd INVX1
XNOR2X1_2 vdd _119_ gnd _120_ x3[0] NOR2X1
XOAI21X1_1 gnd vdd _118_ _120_ _121_ start_bF$buf7 OAI21X1
XOAI21X1_2 gnd vdd _116_ start_bF$buf7 _15_[0] _121_ OAI21X1
XINVX1_4 butterfly.re_part[3][1] _122_ vdd gnd INVX1
XXNOR2X1_1 x1[1] x3[1] gnd vdd _123_ XNOR2X1
XOAI21X1_3 gnd vdd x1[0] _117_ _124_ _123_ OAI21X1
XXOR2X1_1 _125_ vdd x3[1] x1[1] gnd XOR2X1
XNAND2X1_1 vdd _126_ gnd _118_ _125_ NAND2X1
XNAND3X1_1 _126_ vdd gnd start_bF$buf7 _124_ _127_ NAND3X1
XOAI21X1_4 gnd vdd start_bF$buf7 _122_ _15_[1] _127_ OAI21X1
XINVX8_1 vdd gnd start_bF$buf6 _128_ INVX8
XINVX1_5 x1[1] _129_ vdd gnd INVX1
XOAI21X1_5 gnd vdd _129_ x3[1] _130_ _124_ OAI21X1
XINVX1_6 x1[2] _131_ vdd gnd INVX1
XNAND2X1_2 vdd _132_ gnd x3[2] _131_ NAND2X1
XINVX1_7 x3[2] _133_ vdd gnd INVX1
XNAND2X1_3 vdd _134_ gnd x1[2] _133_ NAND2X1
XNAND2X1_4 vdd _135_ gnd _132_ _134_ NAND2X1
XINVX1_8 _135_ _136_ vdd gnd INVX1
XXNOR2X1_2 _130_ _136_ gnd vdd _137_ XNOR2X1
XNAND2X1_5 vdd _138_ gnd butterfly.re_part[3][2] _128__bF$buf2 NAND2X1
XOAI21X1_6 gnd vdd _128__bF$buf2 _137_ _15_[2] _138_ OAI21X1
XINVX1_9 _134_ _139_ vdd gnd INVX1
XAOI21X1_1 gnd vdd _130_ _136_ _140_ _139_ AOI21X1
XINVX1_10 x1[3] _141_ vdd gnd INVX1
XNAND2X1_6 vdd _142_ gnd x3[3] _141_ NAND2X1
XINVX1_11 x3[3] _143_ vdd gnd INVX1
XNAND2X1_7 vdd _144_ gnd x1[3] _143_ NAND2X1
XNAND2X1_8 vdd _145_ gnd _142_ _144_ NAND2X1
XXNOR2X1_3 _140_ _145_ gnd vdd _146_ XNOR2X1
XNAND2X1_9 vdd _147_ gnd butterfly.re_part[3][3] _128__bF$buf2 NAND2X1
XOAI21X1_7 gnd vdd _128__bF$buf2 _146_ _15_[3] _147_ OAI21X1
XINVX1_12 butterfly.re_part[3][4] _148_ vdd gnd INVX1
XINVX1_13 x3[4] _149_ vdd gnd INVX1
XNOR2X1_3 vdd _149_ gnd _150_ x1[4] NOR2X1
XINVX1_14 x1[4] _151_ vdd gnd INVX1
XNOR2X1_4 vdd _151_ gnd _152_ x3[4] NOR2X1
XNOR2X1_5 vdd _152_ gnd _153_ _150_ NOR2X1
XINVX1_15 _153_ _154_ vdd gnd INVX1
XNOR2X1_6 vdd _145_ gnd _155_ _135_ NOR2X1
XINVX1_16 _142_ _156_ vdd gnd INVX1
XOAI21X1_8 gnd vdd _134_ _156_ _157_ _144_ OAI21X1
XAOI21X1_2 gnd vdd _130_ _155_ _158_ _157_ AOI21X1
XAND2X2_1 vdd gnd _158_ _154_ _159_ AND2X2
XOAI21X1_9 gnd vdd _154_ _158_ _160_ start_bF$buf7 OAI21X1
XOAI22X1_1 gnd vdd _160_ _159_ start_bF$buf7 _148_ _15_[4] OAI22X1
XNAND2X1_10 vdd _161_ gnd butterfly.re_part[3][5] _128__bF$buf5 NAND2X1
XINVX1_17 _152_ _162_ vdd gnd INVX1
XOAI21X1_10 gnd vdd _150_ _158_ _163_ _162_ OAI21X1
XINVX1_18 x3[5] _164_ vdd gnd INVX1
XNOR2X1_7 vdd _164_ gnd _165_ x1[5] NOR2X1
XINVX1_19 x1[5] _166_ vdd gnd INVX1
XNOR2X1_8 vdd _166_ gnd _167_ x3[5] NOR2X1
XNOR2X1_9 vdd _167_ gnd _168_ _165_ NOR2X1
XXNOR2X1_4 _163_ _168_ gnd vdd _169_ XNOR2X1
XOAI21X1_11 gnd vdd _128__bF$buf1 _169_ _15_[5] _161_ OAI21X1
XINVX1_20 butterfly.re_part[3][6] _170_ vdd gnd INVX1
XAOI21X1_3 gnd vdd _168_ _152_ _171_ _167_ AOI21X1
XNAND2X1_11 vdd _172_ gnd _153_ _168_ NAND2X1
XOAI21X1_12 gnd vdd _172_ _158_ _173_ _171_ OAI21X1
XINVX1_21 x3[6] _174_ vdd gnd INVX1
XNOR2X1_10 vdd _174_ gnd _175_ x1[6] NOR2X1
XINVX2_1 vdd gnd _176_ x1[6] INVX2
XNOR2X1_11 vdd _176_ gnd _177_ x3[6] NOR2X1
XNOR2X1_12 vdd _177_ gnd _178_ _175_ NOR2X1
XNOR2X1_13 vdd _173_ gnd _179_ _178_ NOR2X1
XNAND2X1_12 vdd _180_ gnd _178_ _173_ NAND2X1
XNAND2X1_13 vdd _181_ gnd start_bF$buf1 _180_ NAND2X1
XOAI22X1_2 gnd vdd _181_ _179_ start_bF$buf1 _170_ _15_[6] OAI22X1
XOAI21X1_13 gnd vdd _176_ x3[6] _182_ _180_ OAI21X1
XINVX1_22 x3[7] _183_ vdd gnd INVX1
XNOR2X1_14 vdd _183_ gnd _184_ x1[7] NOR2X1
XINVX1_23 x1[7] _185_ vdd gnd INVX1
XNOR2X1_15 vdd _185_ gnd _186_ x3[7] NOR2X1
XNOR2X1_16 vdd _186_ gnd _187_ _184_ NOR2X1
XXNOR2X1_5 _182_ _187_ gnd vdd _188_ XNOR2X1
XNAND2X1_14 vdd _189_ gnd butterfly.re_part[3][7] _128__bF$buf3 NAND2X1
XOAI21X1_14 gnd vdd _128__bF$buf3 _188_ _15_[7] _189_ OAI21X1
XINVX1_24 butterfly.re_part[3][8] _190_ vdd gnd INVX1
XINVX1_25 _187_ _191_ vdd gnd INVX1
XINVX1_26 _177_ _192_ vdd gnd INVX1
XOAI21X1_15 gnd vdd _184_ _192_ _193_ start_bF$buf1 OAI21X1
XNOR2X1_17 vdd _193_ gnd _194_ _186_ NOR2X1
XOAI21X1_16 gnd vdd _191_ _180_ _195_ _194_ OAI21X1
XOAI21X1_17 gnd vdd start_bF$buf1 _190_ _15_[8] _195_ OAI21X1
XINVX2_2 vdd gnd _196_ butterfly.re_part[3][9] INVX2
XOAI21X1_18 gnd vdd start_bF$buf3 _196_ _15_[9] _195_ OAI21X1
XINVX2_3 vdd gnd _197_ butterfly.re_part[3][10] INVX2
XOAI21X1_19 gnd vdd start_bF$buf8 _197_ _15_[10] _195_ OAI21X1
XINVX1_27 butterfly.re_part[3][11] _198_ vdd gnd INVX1
XOAI21X1_20 gnd vdd start_bF$buf3 _198_ _15_[11] _195_ OAI21X1
XINVX1_28 butterfly.re_part[3][12] _199_ vdd gnd INVX1
XOAI21X1_21 gnd vdd start_bF$buf1 _199_ _15_[12] _195_ OAI21X1
XINVX2_4 vdd gnd _200_ butterfly.re_part[3][13] INVX2
XOAI21X1_22 gnd vdd start_bF$buf1 _200_ _15_[13] _195_ OAI21X1
XINVX1_29 butterfly.re_part[3][14] _201_ vdd gnd INVX1
XOAI21X1_23 gnd vdd start_bF$buf1 _201_ _15_[14] _195_ OAI21X1
XINVX1_30 butterfly.re_part[3][15] _202_ vdd gnd INVX1
XOAI21X1_24 gnd vdd start_bF$buf3 _202_ _15_[15] _195_ OAI21X1
XINVX1_31 butterfly.re_part[0][0] _203_ vdd gnd INVX1
XINVX1_32 x0[0] _204_ vdd gnd INVX1
XINVX1_33 x2[0] _205_ vdd gnd INVX1
XNOR2X1_18 vdd _205_ gnd _206_ _204_ NOR2X1
XOAI21X1_25 gnd vdd x0[0] x2[0] _207_ start_bF$buf7 OAI21X1
XOR2X2_1 _208_ _207_ vdd gnd _206_ OR2X2
XOAI21X1_26 gnd vdd start_bF$buf7 _203_ _12_[0] _208_ OAI21X1
XINVX1_34 x2[1] _209_ vdd gnd INVX1
XNOR2X1_19 vdd _209_ gnd _210_ x0[1] NOR2X1
XINVX1_35 x0[1] _211_ vdd gnd INVX1
XNOR2X1_20 vdd _211_ gnd _212_ x2[1] NOR2X1
XOAI21X1_27 gnd vdd _210_ _212_ _213_ _206_ OAI21X1
XNOR2X1_21 vdd _212_ gnd _214_ _210_ NOR2X1
XOAI21X1_28 gnd vdd _204_ _205_ _215_ _214_ OAI21X1
XNAND2X1_15 vdd _216_ gnd _213_ _215_ NAND2X1
XNAND2X1_16 vdd _217_ gnd butterfly.re_part[0][1] _128__bF$buf1 NAND2X1
XOAI21X1_29 gnd vdd _128__bF$buf1 _216_ _12_[1] _217_ OAI21X1
XOAI21X1_30 gnd vdd _211_ _209_ _218_ _213_ OAI21X1
XNOR2X1_22 vdd x2[2] gnd _219_ x0[2] NOR2X1
XINVX1_36 x0[2] _220_ vdd gnd INVX1
XINVX1_37 x2[2] _221_ vdd gnd INVX1
XNOR2X1_23 vdd _221_ gnd _222_ _220_ NOR2X1
XNOR2X1_24 vdd _222_ gnd _223_ _219_ NOR2X1
XXNOR2X1_6 _218_ _223_ gnd vdd _224_ XNOR2X1
XNAND2X1_17 vdd _225_ gnd butterfly.re_part[0][2] _128__bF$buf2 NAND2X1
XOAI21X1_31 gnd vdd _128__bF$buf2 _224_ _12_[2] _225_ OAI21X1
XNAND2X1_18 vdd _226_ gnd _223_ _218_ NAND2X1
XOAI21X1_32 gnd vdd _220_ _221_ _227_ _226_ OAI21X1
XINVX1_38 x0[3] _228_ vdd gnd INVX1
XINVX1_39 x2[3] _229_ vdd gnd INVX1
XNAND2X1_19 vdd _230_ gnd _228_ _229_ NAND2X1
XNAND2X1_20 vdd _231_ gnd x0[3] x2[3] NAND2X1
XNAND2X1_21 vdd _232_ gnd _231_ _230_ NAND2X1
XINVX1_40 _232_ _233_ vdd gnd INVX1
XXNOR2X1_7 _227_ _233_ gnd vdd _234_ XNOR2X1
XNAND2X1_22 vdd _235_ gnd butterfly.re_part[0][3] _128__bF$buf1 NAND2X1
XOAI21X1_33 gnd vdd _128__bF$buf1 _234_ _12_[3] _235_ OAI21X1
XINVX1_41 butterfly.re_part[0][4] _236_ vdd gnd INVX1
XAND2X2_2 vdd gnd _233_ _223_ _237_ AND2X2
XINVX1_42 _222_ _238_ vdd gnd INVX1
XOAI21X1_34 gnd vdd _232_ _238_ _239_ _231_ OAI21X1
XAOI21X1_4 gnd vdd _237_ _218_ _240_ _239_ AOI21X1
XNOR2X1_25 vdd x2[4] gnd _241_ x0[4] NOR2X1
XINVX1_43 x0[4] _242_ vdd gnd INVX1
XINVX1_44 x2[4] _243_ vdd gnd INVX1
XNOR2X1_26 vdd _243_ gnd _244_ _242_ NOR2X1
XNOR2X1_27 vdd _244_ gnd _245_ _241_ NOR2X1
XINVX1_45 _245_ _246_ vdd gnd INVX1
XAND2X2_3 vdd gnd _240_ _246_ _247_ AND2X2
XOAI21X1_35 gnd vdd _246_ _240_ _248_ start_bF$buf6 OAI21X1
XOAI22X1_3 gnd vdd _248_ _247_ start_bF$buf6 _236_ _12_[4] OAI22X1
XNAND2X1_23 vdd _249_ gnd butterfly.re_part[0][5] _128__bF$buf1 NAND2X1
XINVX1_46 _244_ _250_ vdd gnd INVX1
XOAI21X1_36 gnd vdd _241_ _240_ _251_ _250_ OAI21X1
XNOR2X1_28 vdd x2[5] gnd _252_ x0[5] NOR2X1
XAND2X2_4 vdd gnd x0[5] x2[5] _253_ AND2X2
XNOR2X1_29 vdd _253_ gnd _254_ _252_ NOR2X1
XXNOR2X1_8 _251_ _254_ gnd vdd _255_ XNOR2X1
XOAI21X1_37 gnd vdd _128__bF$buf1 _255_ _12_[5] _249_ OAI21X1
XINVX1_47 butterfly.re_part[0][6] _256_ vdd gnd INVX1
XAOI21X1_5 gnd vdd _254_ _244_ _257_ _253_ AOI21X1
XNAND2X1_24 vdd _258_ gnd _254_ _245_ NAND2X1
XOAI21X1_38 gnd vdd _258_ _240_ _259_ _257_ OAI21X1
XINVX1_48 x0[6] _260_ vdd gnd INVX1
XNAND2X1_25 vdd _261_ gnd x2[6] _260_ NAND2X1
XINVX1_49 x2[6] _262_ vdd gnd INVX1
XNAND2X1_26 vdd _263_ gnd x0[6] _262_ NAND2X1
XAND2X2_5 vdd gnd _261_ _263_ _264_ AND2X2
XINVX1_50 _264_ _265_ vdd gnd INVX1
XNOR2X1_30 vdd _259_ gnd _266_ _265_ NOR2X1
XNAND2X1_27 vdd _267_ gnd _265_ _259_ NAND2X1
XNAND2X1_28 vdd _268_ gnd start_bF$buf6 _267_ NAND2X1
XOAI22X1_4 gnd vdd _268_ _266_ start_bF$buf6 _256_ _12_[6] OAI22X1
XOAI21X1_39 gnd vdd _260_ _262_ _269_ _267_ OAI21X1
XNOR2X1_31 vdd x2[7] gnd _270_ x0[7] NOR2X1
XNAND2X1_29 vdd _271_ gnd x0[7] x2[7] NAND2X1
XINVX1_51 _271_ _272_ vdd gnd INVX1
XNOR2X1_32 vdd _272_ gnd _273_ _270_ NOR2X1
XXNOR2X1_9 _269_ _273_ gnd vdd _274_ XNOR2X1
XNAND2X1_30 vdd _275_ gnd butterfly.re_part[0][7] _128__bF$buf5 NAND2X1
XOAI21X1_40 gnd vdd _128__bF$buf5 _274_ _12_[7] _275_ OAI21X1
XINVX1_52 butterfly.re_part[0][8] _276_ vdd gnd INVX1
XINVX1_53 _273_ _277_ vdd gnd INVX1
XOR2X2_2 _278_ _277_ vdd gnd _267_ OR2X2
XNAND2X1_31 vdd _279_ gnd x0[6] x2[6] NAND2X1
XOAI21X1_41 gnd vdd _279_ _270_ _280_ _271_ OAI21X1
XNOR2X1_33 vdd _280_ gnd _281_ _128__bF$buf3 NOR2X1
XAOI22X1_1 gnd vdd _281_ _278_ _12_[8] _128__bF$buf3 _276_ AOI22X1
XINVX1_54 butterfly.re_part[0][9] _282_ vdd gnd INVX1
XNOR2X1_34 vdd _282_ gnd _12_[9] start_bF$buf0 NOR2X1
XINVX1_55 butterfly.re_part[0][10] _283_ vdd gnd INVX1
XNOR2X1_35 vdd _283_ gnd _12_[10] start_bF$buf0 NOR2X1
XINVX1_56 butterfly.re_part[0][11] _284_ vdd gnd INVX1
XNOR2X1_36 vdd _284_ gnd _12_[11] start_bF$buf4 NOR2X1
XINVX1_57 butterfly.re_part[0][12] _285_ vdd gnd INVX1
XNOR2X1_37 vdd _285_ gnd _12_[12] start_bF$buf4 NOR2X1
XINVX1_58 butterfly.re_part[0][13] _286_ vdd gnd INVX1
XNOR2X1_38 vdd _286_ gnd _12_[13] start_bF$buf2 NOR2X1
XINVX1_59 butterfly.re_part[0][14] _287_ vdd gnd INVX1
XNOR2X1_39 vdd _287_ gnd _12_[14] start_bF$buf2 NOR2X1
XAND2X2_6 vdd gnd _128__bF$buf0 butterfly.re_part[0][15] _12_[15] AND2X2
XNAND2X1_32 vdd _288_ gnd x2[0] _204_ NAND2X1
XAOI21X1_6 gnd vdd _214_ _288_ _289_ _212_ AOI21X1
XNOR2X1_40 vdd _220_ gnd _290_ x2[2] NOR2X1
XOAI21X1_42 gnd vdd _219_ _222_ _291_ _232_ OAI21X1
XNOR2X1_41 vdd _228_ gnd _292_ x2[3] NOR2X1
XAOI21X1_7 gnd vdd _232_ _290_ _293_ _292_ AOI21X1
XOAI21X1_43 gnd vdd _291_ _289_ _294_ _293_ OAI21X1
XINVX1_60 _254_ _295_ vdd gnd INVX1
XINVX1_61 x0[5] _296_ vdd gnd INVX1
XNAND3X1_2 _243_ vdd gnd x0[4] _295_ _297_ NAND3X1
XOAI21X1_44 gnd vdd _296_ x2[5] _298_ _297_ OAI21X1
XOAI21X1_45 gnd vdd _241_ _244_ _299_ _295_ OAI21X1
XINVX1_62 _299_ _300_ vdd gnd INVX1
XAND2X2_7 vdd gnd _294_ _300_ _301_ AND2X2
XOAI21X1_46 gnd vdd _298_ _301_ _302_ _264_ OAI21X1
XOAI21X1_47 gnd vdd _260_ x2[6] _303_ _302_ OAI21X1
XOAI21X1_48 gnd vdd _270_ _272_ _304_ _303_ OAI21X1
XINVX1_63 butterfly.re_part[2][8] _305_ vdd gnd INVX1
XINVX1_64 x2[7] _306_ vdd gnd INVX1
XAOI21X1_8 gnd vdd _306_ x0[7] _307_ _128__bF$buf3 AOI21X1
XNAND2X1_33 vdd _308_ gnd _307_ _304_ NAND2X1
XOAI21X1_49 gnd vdd start_bF$buf0 _305_ _14_[8] _308_ OAI21X1
XINVX1_65 butterfly.re_part[2][9] _309_ vdd gnd INVX1
XOAI21X1_50 gnd vdd start_bF$buf4 _309_ _14_[9] _308_ OAI21X1
XINVX1_66 butterfly.re_part[2][10] _310_ vdd gnd INVX1
XOAI21X1_51 gnd vdd start_bF$buf8 _310_ _14_[10] _308_ OAI21X1
XINVX1_67 butterfly.re_part[2][11] _311_ vdd gnd INVX1
XOAI21X1_52 gnd vdd start_bF$buf0 _311_ _14_[11] _308_ OAI21X1
XINVX1_68 butterfly.re_part[2][12] _312_ vdd gnd INVX1
XOAI21X1_53 gnd vdd start_bF$buf1 _312_ _14_[12] _308_ OAI21X1
XINVX1_69 butterfly.re_part[2][13] _313_ vdd gnd INVX1
XOAI21X1_54 gnd vdd start_bF$buf3 _313_ _14_[13] _308_ OAI21X1
XINVX1_70 butterfly.re_part[2][14] _314_ vdd gnd INVX1
XOAI21X1_55 gnd vdd start_bF$buf8 _314_ _14_[14] _308_ OAI21X1
XINVX1_71 butterfly.re_part[2][15] _315_ vdd gnd INVX1
XOAI21X1_56 gnd vdd start_bF$buf5 _315_ _14_[15] _308_ OAI21X1
XINVX1_72 butterfly.re_part[1][0] _316_ vdd gnd INVX1
XOAI21X1_57 gnd vdd start_bF$buf7 _316_ _13_[0] _121_ OAI21X1
XINVX1_73 butterfly.re_part[1][1] _317_ vdd gnd INVX1
XNAND3X1_3 x3[0] vdd gnd x1[0] _125_ _318_ NAND3X1
XOAI21X1_58 gnd vdd _119_ _117_ _319_ _123_ OAI21X1
XNAND3X1_4 _318_ vdd gnd start_bF$buf7 _319_ _320_ NAND3X1
XOAI21X1_59 gnd vdd start_bF$buf7 _317_ _13_[1] _320_ OAI21X1
XINVX1_74 x3[1] _321_ vdd gnd INVX1
XOAI21X1_60 gnd vdd _129_ _321_ _322_ _318_ OAI21X1
XXNOR2X1_10 _322_ _135_ gnd vdd _323_ XNOR2X1
XNAND2X1_34 vdd _324_ gnd butterfly.re_part[1][2] _128__bF$buf2 NAND2X1
XOAI21X1_61 gnd vdd _128__bF$buf2 _323_ _13_[2] _324_ OAI21X1
XNOR2X1_42 vdd _133_ gnd _325_ _131_ NOR2X1
XAOI21X1_9 gnd vdd _322_ _135_ _326_ _325_ AOI21X1
XXOR2X1_2 _327_ vdd _145_ _326_ gnd XOR2X1
XNAND2X1_35 vdd _328_ gnd butterfly.re_part[1][3] _128__bF$buf2 NAND2X1
XOAI21X1_62 gnd vdd _128__bF$buf2 _327_ _13_[3] _328_ OAI21X1
XINVX1_75 butterfly.re_part[1][4] _329_ vdd gnd INVX1
XNAND3X1_5 _145_ vdd gnd _135_ _322_ _330_ NAND3X1
XNOR2X1_43 vdd _143_ gnd _331_ _141_ NOR2X1
XAOI21X1_10 gnd vdd _145_ _325_ _332_ _331_ AOI21X1
XAND2X2_8 vdd gnd _330_ _332_ _333_ AND2X2
XNAND2X1_36 vdd _334_ gnd _153_ _333_ NAND2X1
XINVX1_76 _334_ _335_ vdd gnd INVX1
XOAI21X1_63 gnd vdd _153_ _333_ _336_ start_bF$buf6 OAI21X1
XOAI22X1_5 gnd vdd _335_ _336_ start_bF$buf6 _329_ _13_[4] OAI22X1
XNAND2X1_37 vdd _337_ gnd butterfly.re_part[1][5] _128__bF$buf1 NAND2X1
XNOR2X1_44 vdd _149_ gnd _338_ _151_ NOR2X1
XINVX1_77 _338_ _339_ vdd gnd INVX1
XOAI21X1_64 gnd vdd _153_ _333_ _340_ _339_ OAI21X1
XXOR2X1_3 _341_ vdd _168_ _340_ gnd XOR2X1
XOAI21X1_65 gnd vdd _128__bF$buf1 _341_ _13_[5] _337_ OAI21X1
XINVX1_78 butterfly.re_part[1][6] _342_ vdd gnd INVX1
XOAI21X1_66 gnd vdd _165_ _167_ _343_ _338_ OAI21X1
XOAI21X1_67 gnd vdd _166_ _164_ _344_ _343_ OAI21X1
XOAI21X1_68 gnd vdd _165_ _167_ _345_ _154_ OAI21X1
XNOR2X1_45 vdd _333_ gnd _346_ _345_ NOR2X1
XNOR2X1_46 vdd _346_ gnd _347_ _344_ NOR2X1
XNAND2X1_38 vdd _348_ gnd _178_ _347_ NAND2X1
XINVX1_79 _178_ _349_ vdd gnd INVX1
XOAI21X1_69 gnd vdd _344_ _346_ _350_ _349_ OAI21X1
XNAND3X1_6 _350_ vdd gnd start_bF$buf6 _348_ _351_ NAND3X1
XOAI21X1_70 gnd vdd start_bF$buf6 _342_ _13_[6] _351_ OAI21X1
XINVX1_80 butterfly.re_part[1][7] _352_ vdd gnd INVX1
XNOR2X1_47 vdd _174_ gnd _353_ _176_ NOR2X1
XINVX1_81 _353_ _354_ vdd gnd INVX1
XAOI21X1_11 gnd vdd _350_ _354_ _355_ _187_ AOI21X1
XOAI21X1_71 gnd vdd _176_ _174_ _356_ _350_ OAI21X1
XOAI21X1_72 gnd vdd _191_ _356_ _357_ start_bF$buf6 OAI21X1
XOAI22X1_6 gnd vdd _357_ _355_ start_bF$buf6 _352_ _13_[7] OAI22X1
XINVX1_82 butterfly.re_part[1][8] _358_ vdd gnd INVX1
XOAI21X1_73 gnd vdd _185_ _183_ _359_ start_bF$buf1 OAI21X1
XNOR2X1_48 vdd _355_ gnd _360_ _359_ NOR2X1
XAOI21X1_12 gnd vdd _128__bF$buf5 _358_ _13_[8] _360_ AOI21X1
XINVX1_83 butterfly.re_part[1][9] _361_ vdd gnd INVX1
XNOR2X1_49 vdd _361_ gnd _13_[9] start_bF$buf0 NOR2X1
XINVX1_84 butterfly.re_part[1][10] _362_ vdd gnd INVX1
XNOR2X1_50 vdd _362_ gnd _13_[10] start_bF$buf0 NOR2X1
XINVX1_85 butterfly.re_part[1][11] _363_ vdd gnd INVX1
XNOR2X1_51 vdd _363_ gnd _13_[11] start_bF$buf4 NOR2X1
XINVX1_86 butterfly.re_part[1][12] _364_ vdd gnd INVX1
XNOR2X1_52 vdd _364_ gnd _13_[12] start_bF$buf4 NOR2X1
XINVX1_87 butterfly.re_part[1][13] _365_ vdd gnd INVX1
XNOR2X1_53 vdd _365_ gnd _13_[13] start_bF$buf2 NOR2X1
XINVX1_88 butterfly.re_part[1][14] _366_ vdd gnd INVX1
XNOR2X1_54 vdd _366_ gnd _13_[14] start_bF$buf2 NOR2X1
XAND2X2_9 vdd gnd _128__bF$buf0 butterfly.re_part[1][15] _13_[15] AND2X2
XNOR2X1_55 vdd butterfly.re_part[3][1] gnd _367_ butterfly.re_part[3][0] NOR2X1
XINVX1_89 butterfly.re_part[3][2] _368_ vdd gnd INVX1
XNAND2X1_39 vdd _369_ gnd _368_ _367_ NAND2X1
XNOR2X1_56 vdd _369_ gnd _370_ butterfly.re_part[3][3] NOR2X1
XNAND2X1_40 vdd _371_ gnd _148_ _370_ NAND2X1
XOR2X2_3 _372_ butterfly.re_part[3][5] vdd gnd _371_ OR2X2
XINVX1_90 butterfly.re_part[3][7] _373_ vdd gnd INVX1
XNOR2X1_57 vdd _372_ gnd _374_ butterfly.re_part[3][6] NOR2X1
XNAND2X1_41 vdd _375_ gnd _373_ _374_ NAND2X1
XNAND2X1_42 vdd _376_ gnd X3_imag[8] _128__bF$buf0 NAND2X1
XAOI21X1_13 gnd vdd _374_ _373_ _377_ _190_ AOI21X1
XOAI21X1_74 gnd vdd butterfly.re_part[3][8] _375_ _378_ start_bF$buf3 OAI21X1
XOAI21X1_75 gnd vdd _377_ _378_ _9_[8] _376_ OAI21X1
XNAND2X1_43 vdd _379_ gnd X3_imag[9] _128__bF$buf0 NAND2X1
XOAI21X1_76 gnd vdd butterfly.re_part[3][8] _375_ _380_ butterfly.re_part[3][9] OAI21X1
XNOR2X1_58 vdd _375_ gnd _381_ butterfly.re_part[3][8] NOR2X1
XNAND2X1_44 vdd _382_ gnd _196_ _381_ NAND2X1
XNAND2X1_45 vdd _383_ gnd _380_ _382_ NAND2X1
XOAI21X1_77 gnd vdd _128__bF$buf0 _383_ _9_[9] _379_ OAI21X1
XNAND2X1_46 vdd _384_ gnd X3_imag[10] _128__bF$buf0 NAND2X1
XAND2X2_10 vdd gnd _381_ _196_ _385_ AND2X2
XNOR2X1_59 vdd _385_ gnd _386_ _197_ NOR2X1
XOAI21X1_78 gnd vdd butterfly.re_part[3][10] _382_ _387_ start_bF$buf3 OAI21X1
XOAI21X1_79 gnd vdd _387_ _386_ _9_[10] _384_ OAI21X1
XNAND2X1_47 vdd _388_ gnd X3_imag[11] _128__bF$buf0 NAND2X1
XAOI21X1_14 gnd vdd _385_ _197_ _389_ _198_ AOI21X1
XNOR2X1_60 vdd butterfly.re_part[3][9] gnd _390_ butterfly.re_part[3][8] NOR2X1
XNOR2X1_61 vdd butterfly.re_part[3][11] gnd _391_ butterfly.re_part[3][10] NOR2X1
XNAND2X1_48 vdd _392_ gnd _390_ _391_ NAND2X1
XOAI21X1_80 gnd vdd _392_ _375_ _393_ start_bF$buf3 OAI21X1
XOAI21X1_81 gnd vdd _393_ _389_ _9_[11] _388_ OAI21X1
XNAND2X1_49 vdd _394_ gnd X3_imag[12] _128__bF$buf3 NAND2X1
XINVX1_91 _392_ _395_ vdd gnd INVX1
XNAND3X1_7 _395_ vdd gnd _373_ _374_ _396_ NAND3X1
XAND2X2_11 vdd gnd _396_ butterfly.re_part[3][12] _397_ AND2X2
XOAI21X1_82 gnd vdd butterfly.re_part[3][12] _396_ _398_ start_bF$buf1 OAI21X1
XOAI21X1_83 gnd vdd _397_ _398_ _9_[12] _394_ OAI21X1
XNAND2X1_50 vdd _399_ gnd X3_imag[13] _128__bF$buf3 NAND2X1
XOAI21X1_84 gnd vdd butterfly.re_part[3][12] _396_ _400_ butterfly.re_part[3][13] OAI21X1
XNAND2X1_51 vdd _401_ gnd _199_ _200_ NAND2X1
XOAI21X1_85 gnd vdd _396_ _401_ _402_ _400_ OAI21X1
XOAI21X1_86 gnd vdd _128__bF$buf3 _402_ _9_[13] _399_ OAI21X1
XNOR2X1_62 vdd _396_ gnd _403_ butterfly.re_part[3][12] NOR2X1
XAOI21X1_15 gnd vdd _403_ _200_ _404_ _201_ AOI21X1
XNOR3X1_1 vdd gnd _401_ _396_ butterfly.re_part[3][14] _405_ NOR3X1
XOR2X2_4 _406_ _128__bF$buf0 vdd gnd _405_ OR2X2
XNAND2X1_52 vdd _407_ gnd X3_imag[14] _128__bF$buf0 NAND2X1
XOAI21X1_87 gnd vdd _404_ _406_ _9_[14] _407_ OAI21X1
XINVX1_92 X3_imag[15] _408_ vdd gnd INVX1
XNAND2X1_53 vdd _409_ gnd start_bF$buf3 butterfly.re_part[3][15] NAND2X1
XOAI21X1_88 gnd vdd start_bF$buf3 _408_ _410_ _409_ OAI21X1
XOAI21X1_89 gnd vdd _128__bF$buf3 _405_ _411_ _410_ OAI21X1
XOAI21X1_90 gnd vdd butterfly.re_part[3][15] _406_ _9_[15] _411_ OAI21X1
XINVX1_93 X3_real[8] _412_ vdd gnd INVX1
XNAND2X1_54 vdd _413_ gnd start_bF$buf0 butterfly.re_part[2][8] NAND2X1
XOAI21X1_91 gnd vdd start_bF$buf2 _412_ _10_[8] _413_ OAI21X1
XINVX1_94 X3_real[9] _414_ vdd gnd INVX1
XNAND2X1_55 vdd _415_ gnd start_bF$buf4 butterfly.re_part[2][9] NAND2X1
XOAI21X1_92 gnd vdd start_bF$buf4 _414_ _10_[9] _415_ OAI21X1
XINVX1_95 X3_real[10] _416_ vdd gnd INVX1
XNAND2X1_56 vdd _417_ gnd start_bF$buf8 butterfly.re_part[2][10] NAND2X1
XOAI21X1_93 gnd vdd start_bF$buf8 _416_ _10_[10] _417_ OAI21X1
XINVX1_96 X3_real[11] _418_ vdd gnd INVX1
XNAND2X1_57 vdd _419_ gnd start_bF$buf8 butterfly.re_part[2][11] NAND2X1
XOAI21X1_94 gnd vdd start_bF$buf8 _418_ _10_[11] _419_ OAI21X1
XINVX1_97 X3_real[12] _420_ vdd gnd INVX1
XNAND2X1_58 vdd _421_ gnd start_bF$buf8 butterfly.re_part[2][12] NAND2X1
XOAI21X1_95 gnd vdd start_bF$buf3 _420_ _10_[12] _421_ OAI21X1
XINVX1_98 X3_real[13] _422_ vdd gnd INVX1
XNAND2X1_59 vdd _423_ gnd start_bF$buf8 butterfly.re_part[2][13] NAND2X1
XOAI21X1_96 gnd vdd start_bF$buf2 _422_ _10_[13] _423_ OAI21X1
XINVX1_99 X3_real[14] _424_ vdd gnd INVX1
XNAND2X1_60 vdd _425_ gnd start_bF$buf8 butterfly.re_part[2][14] NAND2X1
XOAI21X1_97 gnd vdd start_bF$buf8 _424_ _10_[14] _425_ OAI21X1
XINVX1_100 X3_real[15] _426_ vdd gnd INVX1
XNAND2X1_61 vdd _427_ gnd start_bF$buf5 butterfly.re_part[2][15] NAND2X1
XOAI21X1_98 gnd vdd start_bF$buf2 _426_ _10_[15] _427_ OAI21X1
XINVX1_101 X1_real[8] _428_ vdd gnd INVX1
XOAI21X1_99 gnd vdd start_bF$buf5 _428_ _7_[8] _413_ OAI21X1
XINVX1_102 X1_real[9] _429_ vdd gnd INVX1
XOAI21X1_100 gnd vdd start_bF$buf0 _429_ _7_[9] _415_ OAI21X1
XINVX1_103 X1_real[10] _430_ vdd gnd INVX1
XOAI21X1_101 gnd vdd start_bF$buf5 _430_ _7_[10] _417_ OAI21X1
XINVX1_104 X1_real[11] _431_ vdd gnd INVX1
XOAI21X1_102 gnd vdd start_bF$buf5 _431_ _7_[11] _419_ OAI21X1
XINVX1_105 X1_real[12] _432_ vdd gnd INVX1
XOAI21X1_103 gnd vdd start_bF$buf5 _432_ _7_[12] _421_ OAI21X1
XINVX1_106 X1_real[13] _433_ vdd gnd INVX1
XOAI21X1_104 gnd vdd start_bF$buf5 _433_ _7_[13] _423_ OAI21X1
XINVX1_107 X1_real[14] _434_ vdd gnd INVX1
XOAI21X1_105 gnd vdd start_bF$buf5 _434_ _7_[14] _425_ OAI21X1
XINVX1_108 X1_real[15] _435_ vdd gnd INVX1
XOAI21X1_106 gnd vdd start_bF$buf5 _435_ _7_[15] _427_ OAI21X1
XNOR2X1_63 vdd _316_ gnd _436_ butterfly.re_part[0][0] NOR2X1
XXNOR2X1_11 butterfly.re_part[0][1] butterfly.re_part[1][1] gnd vdd _437_ XNOR2X1
XNAND2X1_62 vdd _438_ gnd butterfly.re_part[0][1] _317_ NAND2X1
XNOR2X1_64 vdd _317_ gnd _439_ butterfly.re_part[0][1] NOR2X1
XOAI21X1_107 gnd vdd _436_ _439_ _440_ _438_ OAI21X1
XINVX1_109 butterfly.re_part[0][2] _441_ vdd gnd INVX1
XINVX1_110 butterfly.re_part[1][2] _442_ vdd gnd INVX1
XNAND2X1_63 vdd _443_ gnd _441_ _442_ NAND2X1
XNAND2X1_64 vdd _444_ gnd butterfly.re_part[0][2] butterfly.re_part[1][2] NAND2X1
XNAND2X1_65 vdd _445_ gnd _444_ _443_ NAND2X1
XNOR2X1_65 vdd _441_ gnd _446_ butterfly.re_part[1][2] NOR2X1
XINVX1_111 butterfly.re_part[1][3] _447_ vdd gnd INVX1
XNAND2X1_66 vdd _448_ gnd butterfly.re_part[0][3] _447_ NAND2X1
XINVX1_112 butterfly.re_part[0][3] _449_ vdd gnd INVX1
XNAND2X1_67 vdd _450_ gnd butterfly.re_part[1][3] _449_ NAND2X1
XNAND2X1_68 vdd _451_ gnd _448_ _450_ NAND2X1
XAOI21X1_16 gnd vdd _443_ _444_ _452_ _451_ AOI21X1
XOAI21X1_108 gnd vdd butterfly.re_part[0][3] _447_ _453_ _446_ OAI21X1
XOAI21X1_109 gnd vdd _449_ butterfly.re_part[1][3] _454_ _453_ OAI21X1
XAOI21X1_17 gnd vdd _452_ _440_ _455_ _454_ AOI21X1
XNAND2X1_69 vdd _456_ gnd butterfly.re_part[0][4] _329_ NAND2X1
XNAND2X1_70 vdd _457_ gnd butterfly.re_part[1][4] _236_ NAND2X1
XNAND2X1_71 vdd _458_ gnd _456_ _457_ NAND2X1
XXNOR2X1_12 butterfly.re_part[0][5] butterfly.re_part[1][5] gnd vdd _459_ XNOR2X1
XINVX1_113 butterfly.re_part[1][5] _460_ vdd gnd INVX1
XINVX1_114 butterfly.re_part[0][5] _461_ vdd gnd INVX1
XOAI21X1_110 gnd vdd _461_ butterfly.re_part[1][5] _462_ _456_ OAI21X1
XOAI21X1_111 gnd vdd butterfly.re_part[0][5] _460_ _463_ _462_ OAI21X1
XINVX1_115 _458_ _464_ vdd gnd INVX1
XNAND2X1_72 vdd _465_ gnd _459_ _464_ NAND2X1
XNAND2X1_73 vdd _466_ gnd _256_ _342_ NAND2X1
XNAND2X1_74 vdd _467_ gnd butterfly.re_part[0][6] butterfly.re_part[1][6] NAND2X1
XNAND2X1_75 vdd _468_ gnd _467_ _466_ NAND2X1
XNAND2X1_76 vdd _469_ gnd butterfly.re_part[0][7] _352_ NAND2X1
XINVX1_116 butterfly.re_part[0][7] _470_ vdd gnd INVX1
XNAND2X1_77 vdd _471_ gnd butterfly.re_part[1][7] _470_ NAND2X1
XAND2X2_12 vdd gnd _469_ _471_ _472_ AND2X2
XNAND2X1_78 vdd _473_ gnd X2_real[8] _128__bF$buf6 NAND2X1
XXOR2X1_4 _474_ vdd butterfly.re_part[1][6] butterfly.re_part[0][6] gnd XOR2X1
XNAND2X1_79 vdd _475_ gnd _469_ _471_ NAND2X1
XNOR2X1_66 vdd _475_ gnd _476_ _474_ NOR2X1
XNAND3X1_8 _459_ vdd gnd _464_ _476_ _477_ NAND3X1
XNAND2X1_80 vdd _478_ gnd butterfly.re_part[0][5] _460_ NAND2X1
XNAND2X1_81 vdd _479_ gnd butterfly.re_part[1][5] _461_ NAND2X1
XNAND2X1_82 vdd _480_ gnd _478_ _479_ NAND2X1
XOAI21X1_112 gnd vdd _456_ _480_ _481_ _478_ OAI21X1
XNAND3X1_9 _342_ vdd gnd butterfly.re_part[0][6] _471_ _482_ NAND3X1
XOAI21X1_113 gnd vdd _470_ butterfly.re_part[1][7] _483_ _482_ OAI21X1
XAOI21X1_18 gnd vdd _481_ _476_ _484_ _483_ AOI21X1
XOAI21X1_114 gnd vdd _477_ _455_ _485_ _484_ OAI21X1
XNOR2X1_67 vdd butterfly.re_part[1][8] gnd _486_ butterfly.re_part[0][8] NOR2X1
XNOR2X1_68 vdd _358_ gnd _487_ _276_ NOR2X1
XNOR2X1_69 vdd _487_ gnd _488_ _486_ NOR2X1
XINVX1_117 _488_ _489_ vdd gnd INVX1
XNOR2X1_70 vdd _485_ gnd _490_ _489_ NOR2X1
XXNOR2X1_13 butterfly.re_part[0][3] butterfly.re_part[1][3] gnd vdd _491_ XNOR2X1
XNAND3X1_10 _491_ vdd gnd _445_ _440_ _492_ NAND3X1
XNAND3X1_11 _453_ vdd gnd _448_ _492_ _493_ NAND3X1
XNAND2X1_83 vdd _494_ gnd _468_ _472_ NAND2X1
XNOR2X1_71 vdd _465_ gnd _495_ _494_ NOR2X1
XINVX1_118 _483_ _496_ vdd gnd INVX1
XOAI21X1_115 gnd vdd _463_ _494_ _497_ _496_ OAI21X1
XAOI21X1_19 gnd vdd _495_ _493_ _498_ _497_ AOI21X1
XOAI21X1_116 gnd vdd _488_ _498_ _499_ start_bF$buf4 OAI21X1
XOAI21X1_117 gnd vdd _490_ _499_ _8_[8] _473_ OAI21X1
XNAND2X1_84 vdd _500_ gnd X2_real[9] _128__bF$buf6 NAND2X1
XNAND2X1_85 vdd _501_ gnd butterfly.re_part[0][8] _358_ NAND2X1
XOAI21X1_118 gnd vdd _488_ _498_ _502_ _501_ OAI21X1
XNOR2X1_72 vdd butterfly.re_part[1][9] gnd _503_ butterfly.re_part[0][9] NOR2X1
XNOR2X1_73 vdd _361_ gnd _504_ _282_ NOR2X1
XNOR2X1_74 vdd _504_ gnd _505_ _503_ NOR2X1
XINVX2_5 vdd gnd _506_ _505_ INVX2
XAND2X2_13 vdd gnd _502_ _506_ _507_ AND2X2
XOAI21X1_119 gnd vdd _506_ _502_ _508_ start_bF$buf0 OAI21X1
XOAI21X1_120 gnd vdd _507_ _508_ _8_[9] _500_ OAI21X1
XNAND2X1_86 vdd _509_ gnd X2_real[10] _128__bF$buf7 NAND2X1
XNAND2X1_87 vdd _510_ gnd butterfly.re_part[0][9] _361_ NAND2X1
XOAI21X1_121 gnd vdd _501_ _505_ _511_ _510_ OAI21X1
XNOR2X1_75 vdd _505_ gnd _512_ _488_ NOR2X1
XAOI21X1_20 gnd vdd _485_ _512_ _513_ _511_ AOI21X1
XNOR2X1_76 vdd butterfly.re_part[1][10] gnd _514_ butterfly.re_part[0][10] NOR2X1
XNOR2X1_77 vdd _362_ gnd _515_ _283_ NOR2X1
XNOR2X1_78 vdd _515_ gnd _516_ _514_ NOR2X1
XAND2X2_14 vdd gnd _513_ _516_ _517_ AND2X2
XOAI21X1_122 gnd vdd _516_ _513_ _518_ start_bF$buf4 OAI21X1
XOAI21X1_123 gnd vdd _517_ _518_ _8_[10] _509_ OAI21X1
XINVX1_119 X2_real[11] _519_ vdd gnd INVX1
XNOR2X1_79 vdd _513_ gnd _520_ _516_ NOR2X1
XNOR2X1_80 vdd _283_ gnd _521_ butterfly.re_part[1][10] NOR2X1
XNOR2X1_81 vdd butterfly.re_part[1][11] gnd _522_ butterfly.re_part[0][11] NOR2X1
XNOR2X1_82 vdd _363_ gnd _523_ _284_ NOR2X1
XNOR2X1_83 vdd _523_ gnd _524_ _522_ NOR2X1
XOAI21X1_124 gnd vdd _521_ _520_ _525_ _524_ OAI21X1
XNOR2X1_84 vdd _520_ gnd _526_ _521_ NOR2X1
XINVX1_120 _524_ _527_ vdd gnd INVX1
XAOI21X1_21 gnd vdd _526_ _527_ _528_ _128__bF$buf6 AOI21X1
XAOI22X1_2 gnd vdd _525_ _528_ _8_[11] _128__bF$buf6 _519_ AOI22X1
XNAND2X1_88 vdd _529_ gnd X2_real[12] _128__bF$buf7 NAND2X1
XNOR2X1_85 vdd _524_ gnd _530_ _516_ NOR2X1
XNAND2X1_89 vdd _531_ gnd _512_ _530_ NAND2X1
XOAI21X1_125 gnd vdd _522_ _523_ _532_ _521_ OAI21X1
XOAI21X1_126 gnd vdd _284_ butterfly.re_part[1][11] _533_ _532_ OAI21X1
XAOI21X1_22 gnd vdd _511_ _530_ _534_ _533_ AOI21X1
XOAI21X1_127 gnd vdd _531_ _498_ _535_ _534_ OAI21X1
XNOR2X1_86 vdd _285_ gnd _536_ butterfly.re_part[1][12] NOR2X1