* XSpice netlist created from SPICE and liberty sources by spi2xspice.py
*SPICE netlist created from BLIF module fft_top by blif2BSpice
.subckt fft_top a_vdd a_gnd a_clk a_reset a_start a_x0_0_ a_x0_1_ a_x0_2_ a_x0_3_ a_x0_4_ a_x0_5_ a_x0_6_ a_x0_7_ a_x1_0_ a_x1_1_ a_x1_2_ a_x1_3_ a_x1_4_ a_x1_5_ a_x1_6_ a_x1_7_ a_x2_0_ a_x2_1_ a_x2_2_ a_x2_3_ a_x2_4_ a_x2_5_ a_x2_6_ a_x2_7_ a_x3_0_ a_x3_1_ a_x3_2_ a_x3_3_ a_x3_4_ a_x3_5_ a_x3_6_ a_x3_7_ a_X0_mag_0_ a_X0_mag_1_ a_X0_mag_2_ a_X0_mag_3_ a_X0_mag_4_ a_X0_mag_5_ a_X0_mag_6_ a_X0_mag_7_ a_X1_mag_0_ a_X1_mag_1_ a_X1_mag_2_ a_X1_mag_3_ a_X1_mag_4_ a_X1_mag_5_ a_X1_mag_6_ a_X1_mag_7_ a_X2_mag_0_ a_X2_mag_1_ a_X2_mag_2_ a_X2_mag_3_ a_X2_mag_4_ a_X2_mag_5_ a_X2_mag_6_ a_X2_mag_7_ a_X3_mag_0_ a_X3_mag_1_ a_X3_mag_2_ a_X3_mag_3_ a_X3_mag_4_ a_X3_mag_5_ a_X3_mag_6_ a_X3_mag_7_ a_done
ACLKBUF1_1 [clk] clk_bF$buf10 d_lut_CLKBUF1
ACLKBUF1_2 [clk] clk_bF$buf9 d_lut_CLKBUF1
ACLKBUF1_3 [clk] clk_bF$buf8 d_lut_CLKBUF1
ACLKBUF1_4 [clk] clk_bF$buf7 d_lut_CLKBUF1
ACLKBUF1_5 [clk] clk_bF$buf6 d_lut_CLKBUF1
ACLKBUF1_6 [clk] clk_bF$buf5 d_lut_CLKBUF1
ACLKBUF1_7 [clk] clk_bF$buf4 d_lut_CLKBUF1
ACLKBUF1_8 [clk] clk_bF$buf3 d_lut_CLKBUF1
ACLKBUF1_9 [clk] clk_bF$buf2 d_lut_CLKBUF1
ACLKBUF1_10 [clk] clk_bF$buf1 d_lut_CLKBUF1
ACLKBUF1_11 [clk] clk_bF$buf0 d_lut_CLKBUF1
ABUFX4_1 [start] start_bF$buf8 d_lut_BUFX4
ABUFX4_2 [start] start_bF$buf7 d_lut_BUFX4
ABUFX4_3 [start] start_bF$buf6 d_lut_BUFX4
ABUFX4_4 [start] start_bF$buf5 d_lut_BUFX4
ABUFX4_5 [start] start_bF$buf4 d_lut_BUFX4
ABUFX4_6 [start] start_bF$buf3 d_lut_BUFX4
ABUFX4_7 [start] start_bF$buf2 d_lut_BUFX4
ABUFX4_8 [start] start_bF$buf1 d_lut_BUFX4
ABUFX4_9 [start] start_bF$buf0 d_lut_BUFX4
ABUFX4_10 [_128_] _128__bF$buf7 d_lut_BUFX4
ABUFX4_11 [_128_] _128__bF$buf6 d_lut_BUFX4
ABUFX4_12 [_128_] _128__bF$buf5 d_lut_BUFX4
ABUFX4_13 [_128_] _128__bF$buf4 d_lut_BUFX4
ABUFX4_14 [_128_] _128__bF$buf3 d_lut_BUFX4
ABUFX4_15 [_128_] _128__bF$buf2 d_lut_BUFX4
ABUFX4_16 [_128_] _128__bF$buf1 d_lut_BUFX4
ABUFX4_17 [_128_] _128__bF$buf0 d_lut_BUFX4
ABUFX2_1 [_0__0_] X0_mag_0_ d_lut_BUFX2
ABUFX2_2 [_0__1_] X0_mag_1_ d_lut_BUFX2
ABUFX2_3 [_0__2_] X0_mag_2_ d_lut_BUFX2
ABUFX2_4 [_0__3_] X0_mag_3_ d_lut_BUFX2
ABUFX2_5 [_0__4_] X0_mag_4_ d_lut_BUFX2
ABUFX2_6 [_0__5_] X0_mag_5_ d_lut_BUFX2
ABUFX2_7 [_0__6_] X0_mag_6_ d_lut_BUFX2
ABUFX2_8 [_0__7_] X0_mag_7_ d_lut_BUFX2
ABUFX2_9 [_1__0_] X1_mag_0_ d_lut_BUFX2
ABUFX2_10 [_1__1_] X1_mag_1_ d_lut_BUFX2
ABUFX2_11 [_1__2_] X1_mag_2_ d_lut_BUFX2
ABUFX2_12 [_1__3_] X1_mag_3_ d_lut_BUFX2
ABUFX2_13 [_1__4_] X1_mag_4_ d_lut_BUFX2
ABUFX2_14 [_1__5_] X1_mag_5_ d_lut_BUFX2
ABUFX2_15 [_1__6_] X1_mag_6_ d_lut_BUFX2
ABUFX2_16 [_1__7_] X1_mag_7_ d_lut_BUFX2
ABUFX2_17 [_2__0_] X2_mag_0_ d_lut_BUFX2
ABUFX2_18 [_2__1_] X2_mag_1_ d_lut_BUFX2
ABUFX2_19 [_2__2_] X2_mag_2_ d_lut_BUFX2
ABUFX2_20 [_2__3_] X2_mag_3_ d_lut_BUFX2
ABUFX2_21 [_2__4_] X2_mag_4_ d_lut_BUFX2
ABUFX2_22 [_2__5_] X2_mag_5_ d_lut_BUFX2
ABUFX2_23 [_2__6_] X2_mag_6_ d_lut_BUFX2
ABUFX2_24 [_2__7_] X2_mag_7_ d_lut_BUFX2
ABUFX2_25 [_3__0_] X3_mag_0_ d_lut_BUFX2
ABUFX2_26 [_3__1_] X3_mag_1_ d_lut_BUFX2
ABUFX2_27 [_3__2_] X3_mag_2_ d_lut_BUFX2
ABUFX2_28 [_3__3_] X3_mag_3_ d_lut_BUFX2
ABUFX2_29 [_3__4_] X3_mag_4_ d_lut_BUFX2
ABUFX2_30 [_3__5_] X3_mag_5_ d_lut_BUFX2
ABUFX2_31 [_3__6_] X3_mag_6_ d_lut_BUFX2
ABUFX2_32 [_3__7_] X3_mag_7_ d_lut_BUFX2
ABUFX2_33 [_4_] done d_lut_BUFX2
AINVX1_1 [butterfly.re_part_3__0_] _116_ d_lut_INVX1
AINVX1_2 [x3_0_] _117_ d_lut_INVX1
ANOR2X1_1 [x1_0_ _117_] _118_ d_lut_NOR2X1
AINVX1_3 [x1_0_] _119_ d_lut_INVX1
ANOR2X1_2 [x3_0_ _119_] _120_ d_lut_NOR2X1
AOAI21X1_1 [_118_ _120_ start_bF$buf8] _121_ d_lut_OAI21X1
AOAI21X1_2 [_116_ start_bF$buf7 _121_] _15__0_ d_lut_OAI21X1
AINVX1_4 [butterfly.re_part_3__1_] _122_ d_lut_INVX1
AXNOR2X1_1 [x1_1_ x3_1_] _123_ d_lut_XNOR2X1
AOAI21X1_3 [x1_0_ _117_ _123_] _124_ d_lut_OAI21X1
AXOR2X1_1 [x1_1_ x3_1_] _125_ d_lut_XOR2X1
ANAND2X1_1 [_118_ _125_] _126_ d_lut_NAND2X1
ANAND3X1_1 [start_bF$buf6 _126_ _124_] _127_ d_lut_NAND3X1
AOAI21X1_4 [start_bF$buf5 _122_ _127_] _15__1_ d_lut_OAI21X1
AINVX8_1 [start_bF$buf4] _128_ d_lut_INVX8
AINVX1_5 [x1_1_] _129_ d_lut_INVX1
AOAI21X1_5 [_129_ x3_1_ _124_] _130_ d_lut_OAI21X1
AINVX1_6 [x1_2_] _131_ d_lut_INVX1
ANAND2X1_2 [x3_2_ _131_] _132_ d_lut_NAND2X1
AINVX1_7 [x3_2_] _133_ d_lut_INVX1
ANAND2X1_3 [x1_2_ _133_] _134_ d_lut_NAND2X1
ANAND2X1_4 [_132_ _134_] _135_ d_lut_NAND2X1
AINVX1_8 [_135_] _136_ d_lut_INVX1
AXNOR2X1_2 [_130_ _136_] _137_ d_lut_XNOR2X1
ANAND2X1_5 [butterfly.re_part_3__2_ _128__bF$buf7] _138_ d_lut_NAND2X1
AOAI21X1_6 [_128__bF$buf6 _137_ _138_] _15__2_ d_lut_OAI21X1
AINVX1_9 [_134_] _139_ d_lut_INVX1
AAOI21X1_1 [_130_ _136_ _139_] _140_ d_lut_AOI21X1
AINVX1_10 [x1_3_] _141_ d_lut_INVX1
ANAND2X1_6 [x3_3_ _141_] _142_ d_lut_NAND2X1
AINVX1_11 [x3_3_] _143_ d_lut_INVX1
ANAND2X1_7 [x1_3_ _143_] _144_ d_lut_NAND2X1
ANAND2X1_8 [_142_ _144_] _145_ d_lut_NAND2X1
AXNOR2X1_3 [_140_ _145_] _146_ d_lut_XNOR2X1
ANAND2X1_9 [butterfly.re_part_3__3_ _128__bF$buf5] _147_ d_lut_NAND2X1
AOAI21X1_7 [_128__bF$buf4 _146_ _147_] _15__3_ d_lut_OAI21X1
AINVX1_12 [butterfly.re_part_3__4_] _148_ d_lut_INVX1
AINVX1_13 [x3_4_] _149_ d_lut_INVX1
ANOR2X1_3 [x1_4_ _149_] _150_ d_lut_NOR2X1
AINVX1_14 [x1_4_] _151_ d_lut_INVX1
ANOR2X1_4 [x3_4_ _151_] _152_ d_lut_NOR2X1
ANOR2X1_5 [_150_ _152_] _153_ d_lut_NOR2X1
AINVX1_15 [_153_] _154_ d_lut_INVX1
ANOR2X1_6 [_135_ _145_] _155_ d_lut_NOR2X1
AINVX1_16 [_142_] _156_ d_lut_INVX1
AOAI21X1_8 [_134_ _156_ _144_] _157_ d_lut_OAI21X1
AAOI21X1_2 [_130_ _155_ _157_] _158_ d_lut_AOI21X1
AAND2X2_1 [_158_ _154_] _159_ d_lut_AND2X2
AOAI21X1_9 [_154_ _158_ start_bF$buf3] _160_ d_lut_OAI21X1
AOAI22X1_1 [start_bF$buf2 _148_ _159_ _160_] _15__4_ d_lut_OAI22X1
ANAND2X1_10 [butterfly.re_part_3__5_ _128__bF$buf3] _161_ d_lut_NAND2X1
AINVX1_17 [_152_] _162_ d_lut_INVX1
AOAI21X1_10 [_150_ _158_ _162_] _163_ d_lut_OAI21X1
AINVX1_18 [x3_5_] _164_ d_lut_INVX1
ANOR2X1_7 [x1_5_ _164_] _165_ d_lut_NOR2X1
AINVX1_19 [x1_5_] _166_ d_lut_INVX1
ANOR2X1_8 [x3_5_ _166_] _167_ d_lut_NOR2X1
ANOR2X1_9 [_165_ _167_] _168_ d_lut_NOR2X1
AXNOR2X1_4 [_163_ _168_] _169_ d_lut_XNOR2X1
AOAI21X1_11 [_128__bF$buf2 _169_ _161_] _15__5_ d_lut_OAI21X1
AINVX1_20 [butterfly.re_part_3__6_] _170_ d_lut_INVX1
AAOI21X1_3 [_168_ _152_ _167_] _171_ d_lut_AOI21X1
ANAND2X1_11 [_153_ _168_] _172_ d_lut_NAND2X1
AOAI21X1_12 [_172_ _158_ _171_] _173_ d_lut_OAI21X1
AINVX1_21 [x3_6_] _174_ d_lut_INVX1
ANOR2X1_10 [x1_6_ _174_] _175_ d_lut_NOR2X1
AINVX2_1 [x1_6_] _176_ d_lut_INVX2
ANOR2X1_11 [x3_6_ _176_] _177_ d_lut_NOR2X1
ANOR2X1_12 [_175_ _177_] _178_ d_lut_NOR2X1
ANOR2X1_13 [_178_ _173_] _179_ d_lut_NOR2X1
ANAND2X1_12 [_178_ _173_] _180_ d_lut_NAND2X1
ANAND2X1_13 [start_bF$buf1 _180_] _181_ d_lut_NAND2X1
AOAI22X1_2 [start_bF$buf0 _170_ _179_ _181_] _15__6_ d_lut_OAI22X1
AOAI21X1_13 [_176_ x3_6_ _180_] _182_ d_lut_OAI21X1
AINVX1_22 [x3_7_] _183_ d_lut_INVX1
ANOR2X1_14 [x1_7_ _183_] _184_ d_lut_NOR2X1
AINVX1_23 [x1_7_] _185_ d_lut_INVX1
ANOR2X1_15 [x3_7_ _185_] _186_ d_lut_NOR2X1
ANOR2X1_16 [_184_ _186_] _187_ d_lut_NOR2X1
AXNOR2X1_5 [_182_ _187_] _188_ d_lut_XNOR2X1
ANAND2X1_14 [butterfly.re_part_3__7_ _128__bF$buf1] _189_ d_lut_NAND2X1
AOAI21X1_14 [_128__bF$buf0 _188_ _189_] _15__7_ d_lut_OAI21X1
AINVX1_24 [butterfly.re_part_3__8_] _190_ d_lut_INVX1
AINVX1_25 [_187_] _191_ d_lut_INVX1
AINVX1_26 [_177_] _192_ d_lut_INVX1
AOAI21X1_15 [_184_ _192_ start_bF$buf8] _193_ d_lut_OAI21X1
ANOR2X1_17 [_186_ _193_] _194_ d_lut_NOR2X1
AOAI21X1_16 [_191_ _180_ _194_] _195_ d_lut_OAI21X1
AOAI21X1_17 [start_bF$buf7 _190_ _195_] _15__8_ d_lut_OAI21X1
AINVX2_2 [butterfly.re_part_3__9_] _196_ d_lut_INVX2
AOAI21X1_18 [start_bF$buf6 _196_ _195_] _15__9_ d_lut_OAI21X1
AINVX2_3 [butterfly.re_part_3__10_] _197_ d_lut_INVX2
AOAI21X1_19 [start_bF$buf5 _197_ _195_] _15__10_ d_lut_OAI21X1
AINVX1_27 [butterfly.re_part_3__11_] _198_ d_lut_INVX1
AOAI21X1_20 [start_bF$buf4 _198_ _195_] _15__11_ d_lut_OAI21X1
AINVX1_28 [butterfly.re_part_3__12_] _199_ d_lut_INVX1
AOAI21X1_21 [start_bF$buf3 _199_ _195_] _15__12_ d_lut_OAI21X1
AINVX2_4 [butterfly.re_part_3__13_] _200_ d_lut_INVX2
AOAI21X1_22 [start_bF$buf2 _200_ _195_] _15__13_ d_lut_OAI21X1
AINVX1_29 [butterfly.re_part_3__14_] _201_ d_lut_INVX1
AOAI21X1_23 [start_bF$buf1 _201_ _195_] _15__14_ d_lut_OAI21X1
AINVX1_30 [butterfly.re_part_3__15_] _202_ d_lut_INVX1
AOAI21X1_24 [start_bF$buf0 _202_ _195_] _15__15_ d_lut_OAI21X1
AINVX1_31 [butterfly.re_part_0__0_] _203_ d_lut_INVX1
AINVX1_32 [x0_0_] _204_ d_lut_INVX1
AINVX1_33 [x2_0_] _205_ d_lut_INVX1
ANOR2X1_18 [_204_ _205_] _206_ d_lut_NOR2X1
AOAI21X1_25 [x0_0_ x2_0_ start_bF$buf8] _207_ d_lut_OAI21X1
AOR2X2_1 [_206_ _207_] _208_ d_lut_OR2X2
AOAI21X1_26 [start_bF$buf7 _203_ _208_] _12__0_ d_lut_OAI21X1
AINVX1_34 [x2_1_] _209_ d_lut_INVX1
ANOR2X1_19 [x0_1_ _209_] _210_ d_lut_NOR2X1
AINVX1_35 [x0_1_] _211_ d_lut_INVX1
ANOR2X1_20 [x2_1_ _211_] _212_ d_lut_NOR2X1
AOAI21X1_27 [_210_ _212_ _206_] _213_ d_lut_OAI21X1
ANOR2X1_21 [_210_ _212_] _214_ d_lut_NOR2X1
AOAI21X1_28 [_204_ _205_ _214_] _215_ d_lut_OAI21X1
ANAND2X1_15 [_213_ _215_] _216_ d_lut_NAND2X1
ANAND2X1_16 [butterfly.re_part_0__1_ _128__bF$buf7] _217_ d_lut_NAND2X1
AOAI21X1_29 [_128__bF$buf6 _216_ _217_] _12__1_ d_lut_OAI21X1
AOAI21X1_30 [_211_ _209_ _213_] _218_ d_lut_OAI21X1
ANOR2X1_22 [x0_2_ x2_2_] _219_ d_lut_NOR2X1
AINVX1_36 [x0_2_] _220_ d_lut_INVX1
AINVX1_37 [x2_2_] _221_ d_lut_INVX1
ANOR2X1_23 [_220_ _221_] _222_ d_lut_NOR2X1
ANOR2X1_24 [_219_ _222_] _223_ d_lut_NOR2X1
AXNOR2X1_6 [_218_ _223_] _224_ d_lut_XNOR2X1
ANAND2X1_17 [butterfly.re_part_0__2_ _128__bF$buf5] _225_ d_lut_NAND2X1
AOAI21X1_31 [_128__bF$buf4 _224_ _225_] _12__2_ d_lut_OAI21X1
ANAND2X1_18 [_223_ _218_] _226_ d_lut_NAND2X1
AOAI21X1_32 [_220_ _221_ _226_] _227_ d_lut_OAI21X1
AINVX1_38 [x0_3_] _228_ d_lut_INVX1
AINVX1_39 [x2_3_] _229_ d_lut_INVX1
ANAND2X1_19 [_228_ _229_] _230_ d_lut_NAND2X1
ANAND2X1_20 [x0_3_ x2_3_] _231_ d_lut_NAND2X1
ANAND2X1_21 [_231_ _230_] _232_ d_lut_NAND2X1
AINVX1_40 [_232_] _233_ d_lut_INVX1
AXNOR2X1_7 [_227_ _233_] _234_ d_lut_XNOR2X1
ANAND2X1_22 [butterfly.re_part_0__3_ _128__bF$buf3] _235_ d_lut_NAND2X1
AOAI21X1_33 [_128__bF$buf2 _234_ _235_] _12__3_ d_lut_OAI21X1
AINVX1_41 [butterfly.re_part_0__4_] _236_ d_lut_INVX1
AAND2X2_2 [_233_ _223_] _237_ d_lut_AND2X2
AINVX1_42 [_222_] _238_ d_lut_INVX1
AOAI21X1_34 [_232_ _238_ _231_] _239_ d_lut_OAI21X1
AAOI21X1_4 [_237_ _218_ _239_] _240_ d_lut_AOI21X1
ANOR2X1_25 [x0_4_ x2_4_] _241_ d_lut_NOR2X1
AINVX1_43 [x0_4_] _242_ d_lut_INVX1
AINVX1_44 [x2_4_] _243_ d_lut_INVX1
ANOR2X1_26 [_242_ _243_] _244_ d_lut_NOR2X1
ANOR2X1_27 [_241_ _244_] _245_ d_lut_NOR2X1
AINVX1_45 [_245_] _246_ d_lut_INVX1
AAND2X2_3 [_240_ _246_] _247_ d_lut_AND2X2
AOAI21X1_35 [_246_ _240_ start_bF$buf6] _248_ d_lut_OAI21X1
AOAI22X1_3 [start_bF$buf5 _236_ _247_ _248_] _12__4_ d_lut_OAI22X1
ANAND2X1_23 [butterfly.re_part_0__5_ _128__bF$buf1] _249_ d_lut_NAND2X1
AINVX1_46 [_244_] _250_ d_lut_INVX1
AOAI21X1_36 [_241_ _240_ _250_] _251_ d_lut_OAI21X1
ANOR2X1_28 [x0_5_ x2_5_] _252_ d_lut_NOR2X1
AAND2X2_4 [x0_5_ x2_5_] _253_ d_lut_AND2X2
ANOR2X1_29 [_252_ _253_] _254_ d_lut_NOR2X1
AXNOR2X1_8 [_251_ _254_] _255_ d_lut_XNOR2X1
AOAI21X1_37 [_128__bF$buf0 _255_ _249_] _12__5_ d_lut_OAI21X1
AINVX1_47 [butterfly.re_part_0__6_] _256_ d_lut_INVX1
AAOI21X1_5 [_254_ _244_ _253_] _257_ d_lut_AOI21X1
ANAND2X1_24 [_254_ _245_] _258_ d_lut_NAND2X1
AOAI21X1_38 [_258_ _240_ _257_] _259_ d_lut_OAI21X1
AINVX1_48 [x0_6_] _260_ d_lut_INVX1
ANAND2X1_25 [x2_6_ _260_] _261_ d_lut_NAND2X1
AINVX1_49 [x2_6_] _262_ d_lut_INVX1
ANAND2X1_26 [x0_6_ _262_] _263_ d_lut_NAND2X1
AAND2X2_5 [_261_ _263_] _264_ d_lut_AND2X2
AINVX1_50 [_264_] _265_ d_lut_INVX1
ANOR2X1_30 [_265_ _259_] _266_ d_lut_NOR2X1
ANAND2X1_27 [_265_ _259_] _267_ d_lut_NAND2X1
ANAND2X1_28 [start_bF$buf4 _267_] _268_ d_lut_NAND2X1
AOAI22X1_4 [start_bF$buf3 _256_ _266_ _268_] _12__6_ d_lut_OAI22X1
AOAI21X1_39 [_260_ _262_ _267_] _269_ d_lut_OAI21X1
ANOR2X1_31 [x0_7_ x2_7_] _270_ d_lut_NOR2X1
ANAND2X1_29 [x0_7_ x2_7_] _271_ d_lut_NAND2X1
AINVX1_51 [_271_] _272_ d_lut_INVX1
ANOR2X1_32 [_270_ _272_] _273_ d_lut_NOR2X1
AXNOR2X1_9 [_269_ _273_] _274_ d_lut_XNOR2X1
ANAND2X1_30 [butterfly.re_part_0__7_ _128__bF$buf7] _275_ d_lut_NAND2X1
AOAI21X1_40 [_128__bF$buf6 _274_ _275_] _12__7_ d_lut_OAI21X1
AINVX1_52 [butterfly.re_part_0__8_] _276_ d_lut_INVX1
AINVX1_53 [_273_] _277_ d_lut_INVX1
AOR2X2_2 [_267_ _277_] _278_ d_lut_OR2X2
ANAND2X1_31 [x0_6_ x2_6_] _279_ d_lut_NAND2X1
AOAI21X1_41 [_279_ _270_ _271_] _280_ d_lut_OAI21X1
ANOR2X1_33 [_128__bF$buf5 _280_] _281_ d_lut_NOR2X1
AAOI22X1_1 [_128__bF$buf4 _276_ _281_ _278_] _12__8_ d_lut_AOI22X1
AINVX1_54 [butterfly.re_part_0__9_] _282_ d_lut_INVX1
ANOR2X1_34 [start_bF$buf2 _282_] _12__9_ d_lut_NOR2X1
AINVX1_55 [butterfly.re_part_0__10_] _283_ d_lut_INVX1
ANOR2X1_35 [start_bF$buf1 _283_] _12__10_ d_lut_NOR2X1
AINVX1_56 [butterfly.re_part_0__11_] _284_ d_lut_INVX1
ANOR2X1_36 [start_bF$buf0 _284_] _12__11_ d_lut_NOR2X1
AINVX1_57 [butterfly.re_part_0__12_] _285_ d_lut_INVX1
ANOR2X1_37 [start_bF$buf8 _285_] _12__12_ d_lut_NOR2X1
AINVX1_58 [butterfly.re_part_0__13_] _286_ d_lut_INVX1
ANOR2X1_38 [start_bF$buf7 _286_] _12__13_ d_lut_NOR2X1
AINVX1_59 [butterfly.re_part_0__14_] _287_ d_lut_INVX1
ANOR2X1_39 [start_bF$buf6 _287_] _12__14_ d_lut_NOR2X1
AAND2X2_6 [_128__bF$buf3 butterfly.re_part_0__15_] _12__15_ d_lut_AND2X2
ANAND2X1_32 [x2_0_ _204_] _288_ d_lut_NAND2X1
AAOI21X1_6 [_214_ _288_ _212_] _289_ d_lut_AOI21X1
ANOR2X1_40 [x2_2_ _220_] _290_ d_lut_NOR2X1
AOAI21X1_42 [_219_ _222_ _232_] _291_ d_lut_OAI21X1
ANOR2X1_41 [x2_3_ _228_] _292_ d_lut_NOR2X1
AAOI21X1_7 [_232_ _290_ _292_] _293_ d_lut_AOI21X1
AOAI21X1_43 [_291_ _289_ _293_] _294_ d_lut_OAI21X1
AINVX1_60 [_254_] _295_ d_lut_INVX1
AINVX1_61 [x0_5_] _296_ d_lut_INVX1
ANAND3X1_2 [x0_4_ _243_ _295_] _297_ d_lut_NAND3X1
AOAI21X1_44 [_296_ x2_5_ _297_] _298_ d_lut_OAI21X1
AOAI21X1_45 [_241_ _244_ _295_] _299_ d_lut_OAI21X1
AINVX1_62 [_299_] _300_ d_lut_INVX1
AAND2X2_7 [_294_ _300_] _301_ d_lut_AND2X2
AOAI21X1_46 [_298_ _301_ _264_] _302_ d_lut_OAI21X1
AOAI21X1_47 [_260_ x2_6_ _302_] _303_ d_lut_OAI21X1
AOAI21X1_48 [_270_ _272_ _303_] _304_ d_lut_OAI21X1
AINVX1_63 [butterfly.re_part_2__8_] _305_ d_lut_INVX1
AINVX1_64 [x2_7_] _306_ d_lut_INVX1
AAOI21X1_8 [_306_ x0_7_ _128__bF$buf2] _307_ d_lut_AOI21X1
ANAND2X1_33 [_307_ _304_] _308_ d_lut_NAND2X1
AOAI21X1_49 [start_bF$buf5 _305_ _308_] _14__8_ d_lut_OAI21X1
AINVX1_65 [butterfly.re_part_2__9_] _309_ d_lut_INVX1
AOAI21X1_50 [start_bF$buf4 _309_ _308_] _14__9_ d_lut_OAI21X1
AINVX1_66 [butterfly.re_part_2__10_] _310_ d_lut_INVX1
AOAI21X1_51 [start_bF$buf3 _310_ _308_] _14__10_ d_lut_OAI21X1
AINVX1_67 [butterfly.re_part_2__11_] _311_ d_lut_INVX1
AOAI21X1_52 [start_bF$buf2 _311_ _308_] _14__11_ d_lut_OAI21X1
AINVX1_68 [butterfly.re_part_2__12_] _312_ d_lut_INVX1
AOAI21X1_53 [start_bF$buf1 _312_ _308_] _14__12_ d_lut_OAI21X1
AINVX1_69 [butterfly.re_part_2__13_] _313_ d_lut_INVX1
AOAI21X1_54 [start_bF$buf0 _313_ _308_] _14__13_ d_lut_OAI21X1
AINVX1_70 [butterfly.re_part_2__14_] _314_ d_lut_INVX1
AOAI21X1_55 [start_bF$buf8 _314_ _308_] _14__14_ d_lut_OAI21X1
AINVX1_71 [butterfly.re_part_2__15_] _315_ d_lut_INVX1
AOAI21X1_56 [start_bF$buf7 _315_ _308_] _14__15_ d_lut_OAI21X1
AINVX1_72 [butterfly.re_part_1__0_] _316_ d_lut_INVX1
AOAI21X1_57 [start_bF$buf6 _316_ _121_] _13__0_ d_lut_OAI21X1
AINVX1_73 [butterfly.re_part_1__1_] _317_ d_lut_INVX1
ANAND3X1_3 [x1_0_ x3_0_ _125_] _318_ d_lut_NAND3X1
AOAI21X1_58 [_119_ _117_ _123_] _319_ d_lut_OAI21X1
ANAND3X1_4 [start_bF$buf5 _318_ _319_] _320_ d_lut_NAND3X1
AOAI21X1_59 [start_bF$buf4 _317_ _320_] _13__1_ d_lut_OAI21X1
AINVX1_74 [x3_1_] _321_ d_lut_INVX1
AOAI21X1_60 [_129_ _321_ _318_] _322_ d_lut_OAI21X1
AXNOR2X1_10 [_322_ _135_] _323_ d_lut_XNOR2X1
ANAND2X1_34 [butterfly.re_part_1__2_ _128__bF$buf1] _324_ d_lut_NAND2X1
AOAI21X1_61 [_128__bF$buf0 _323_ _324_] _13__2_ d_lut_OAI21X1
ANOR2X1_42 [_131_ _133_] _325_ d_lut_NOR2X1
AAOI21X1_9 [_322_ _135_ _325_] _326_ d_lut_AOI21X1
AXOR2X1_2 [_326_ _145_] _327_ d_lut_XOR2X1
ANAND2X1_35 [butterfly.re_part_1__3_ _128__bF$buf7] _328_ d_lut_NAND2X1
AOAI21X1_62 [_128__bF$buf6 _327_ _328_] _13__3_ d_lut_OAI21X1
AINVX1_75 [butterfly.re_part_1__4_] _329_ d_lut_INVX1
ANAND3X1_5 [_135_ _145_ _322_] _330_ d_lut_NAND3X1
ANOR2X1_43 [_141_ _143_] _331_ d_lut_NOR2X1
AAOI21X1_10 [_145_ _325_ _331_] _332_ d_lut_AOI21X1
AAND2X2_8 [_330_ _332_] _333_ d_lut_AND2X2
ANAND2X1_36 [_153_ _333_] _334_ d_lut_NAND2X1
AINVX1_76 [_334_] _335_ d_lut_INVX1
AOAI21X1_63 [_153_ _333_ start_bF$buf3] _336_ d_lut_OAI21X1
AOAI22X1_5 [start_bF$buf2 _329_ _336_ _335_] _13__4_ d_lut_OAI22X1
ANAND2X1_37 [butterfly.re_part_1__5_ _128__bF$buf5] _337_ d_lut_NAND2X1
ANOR2X1_44 [_151_ _149_] _338_ d_lut_NOR2X1
AINVX1_77 [_338_] _339_ d_lut_INVX1
AOAI21X1_64 [_153_ _333_ _339_] _340_ d_lut_OAI21X1
AXOR2X1_3 [_340_ _168_] _341_ d_lut_XOR2X1
AOAI21X1_65 [_128__bF$buf4 _341_ _337_] _13__5_ d_lut_OAI21X1
AINVX1_78 [butterfly.re_part_1__6_] _342_ d_lut_INVX1
AOAI21X1_66 [_165_ _167_ _338_] _343_ d_lut_OAI21X1
AOAI21X1_67 [_166_ _164_ _343_] _344_ d_lut_OAI21X1
AOAI21X1_68 [_165_ _167_ _154_] _345_ d_lut_OAI21X1
ANOR2X1_45 [_345_ _333_] _346_ d_lut_NOR2X1
ANOR2X1_46 [_344_ _346_] _347_ d_lut_NOR2X1
ANAND2X1_38 [_178_ _347_] _348_ d_lut_NAND2X1
AINVX1_79 [_178_] _349_ d_lut_INVX1
AOAI21X1_69 [_344_ _346_ _349_] _350_ d_lut_OAI21X1
ANAND3X1_6 [start_bF$buf1 _350_ _348_] _351_ d_lut_NAND3X1
AOAI21X1_70 [start_bF$buf0 _342_ _351_] _13__6_ d_lut_OAI21X1
AINVX1_80 [butterfly.re_part_1__7_] _352_ d_lut_INVX1
ANOR2X1_47 [_176_ _174_] _353_ d_lut_NOR2X1
AINVX1_81 [_353_] _354_ d_lut_INVX1
AAOI21X1_11 [_350_ _354_ _187_] _355_ d_lut_AOI21X1
AOAI21X1_71 [_176_ _174_ _350_] _356_ d_lut_OAI21X1
AOAI21X1_72 [_191_ _356_ start_bF$buf8] _357_ d_lut_OAI21X1
AOAI22X1_6 [start_bF$buf7 _352_ _355_ _357_] _13__7_ d_lut_OAI22X1
AINVX1_82 [butterfly.re_part_1__8_] _358_ d_lut_INVX1
AOAI21X1_73 [_185_ _183_ start_bF$buf6] _359_ d_lut_OAI21X1
ANOR2X1_48 [_359_ _355_] _360_ d_lut_NOR2X1
AAOI21X1_12 [_128__bF$buf3 _358_ _360_] _13__8_ d_lut_AOI21X1
AINVX1_83 [butterfly.re_part_1__9_] _361_ d_lut_INVX1
ANOR2X1_49 [start_bF$buf5 _361_] _13__9_ d_lut_NOR2X1
AINVX1_84 [butterfly.re_part_1__10_] _362_ d_lut_INVX1
ANOR2X1_50 [start_bF$buf4 _362_] _13__10_ d_lut_NOR2X1
AINVX1_85 [butterfly.re_part_1__11_] _363_ d_lut_INVX1
ANOR2X1_51 [start_bF$buf3 _363_] _13__11_ d_lut_NOR2X1
AINVX1_86 [butterfly.re_part_1__12_] _364_ d_lut_INVX1
ANOR2X1_52 [start_bF$buf2 _364_] _13__12_ d_lut_NOR2X1
AINVX1_87 [butterfly.re_part_1__13_] _365_ d_lut_INVX1
ANOR2X1_53 [start_bF$buf1 _365_] _13__13_ d_lut_NOR2X1
AINVX1_88 [butterfly.re_part_1__14_] _366_ d_lut_INVX1
ANOR2X1_54 [start_bF$buf0 _366_] _13__14_ d_lut_NOR2X1
AAND2X2_9 [_128__bF$buf2 butterfly.re_part_1__15_] _13__15_ d_lut_AND2X2
ANOR2X1_55 [butterfly.re_part_3__0_ butterfly.re_part_3__1_] _367_ d_lut_NOR2X1
AINVX1_89 [butterfly.re_part_3__2_] _368_ d_lut_INVX1
ANAND2X1_39 [_368_ _367_] _369_ d_lut_NAND2X1
ANOR2X1_56 [butterfly.re_part_3__3_ _369_] _370_ d_lut_NOR2X1
ANAND2X1_40 [_148_ _370_] _371_ d_lut_NAND2X1
AOR2X2_3 [_371_ butterfly.re_part_3__5_] _372_ d_lut_OR2X2
AINVX1_90 [butterfly.re_part_3__7_] _373_ d_lut_INVX1
ANOR2X1_57 [butterfly.re_part_3__6_ _372_] _374_ d_lut_NOR2X1
ANAND2X1_41 [_373_ _374_] _375_ d_lut_NAND2X1
ANAND2X1_42 [X3_imag_8_ _128__bF$buf1] _376_ d_lut_NAND2X1
AAOI21X1_13 [_374_ _373_ _190_] _377_ d_lut_AOI21X1
AOAI21X1_74 [butterfly.re_part_3__8_ _375_ start_bF$buf8] _378_ d_lut_OAI21X1
AOAI21X1_75 [_377_ _378_ _376_] _9__8_ d_lut_OAI21X1
ANAND2X1_43 [X3_imag_9_ _128__bF$buf0] _379_ d_lut_NAND2X1
AOAI21X1_76 [butterfly.re_part_3__8_ _375_ butterfly.re_part_3__9_] _380_ d_lut_OAI21X1
ANOR2X1_58 [butterfly.re_part_3__8_ _375_] _381_ d_lut_NOR2X1
ANAND2X1_44 [_196_ _381_] _382_ d_lut_NAND2X1
ANAND2X1_45 [_380_ _382_] _383_ d_lut_NAND2X1
AOAI21X1_77 [_128__bF$buf7 _383_ _379_] _9__9_ d_lut_OAI21X1
ANAND2X1_46 [X3_imag_10_ _128__bF$buf6] _384_ d_lut_NAND2X1
AAND2X2_10 [_381_ _196_] _385_ d_lut_AND2X2
ANOR2X1_59 [_197_ _385_] _386_ d_lut_NOR2X1
AOAI21X1_78 [butterfly.re_part_3__10_ _382_ start_bF$buf7] _387_ d_lut_OAI21X1
AOAI21X1_79 [_387_ _386_ _384_] _9__10_ d_lut_OAI21X1
ANAND2X1_47 [X3_imag_11_ _128__bF$buf5] _388_ d_lut_NAND2X1
AAOI21X1_14 [_385_ _197_ _198_] _389_ d_lut_AOI21X1
ANOR2X1_60 [butterfly.re_part_3__8_ butterfly.re_part_3__9_] _390_ d_lut_NOR2X1
ANOR2X1_61 [butterfly.re_part_3__10_ butterfly.re_part_3__11_] _391_ d_lut_NOR2X1
ANAND2X1_48 [_390_ _391_] _392_ d_lut_NAND2X1
AOAI21X1_80 [_392_ _375_ start_bF$buf6] _393_ d_lut_OAI21X1
AOAI21X1_81 [_393_ _389_ _388_] _9__11_ d_lut_OAI21X1
ANAND2X1_49 [X3_imag_12_ _128__bF$buf4] _394_ d_lut_NAND2X1
AINVX1_91 [_392_] _395_ d_lut_INVX1
ANAND3X1_7 [_373_ _395_ _374_] _396_ d_lut_NAND3X1
AAND2X2_11 [_396_ butterfly.re_part_3__12_] _397_ d_lut_AND2X2
AOAI21X1_82 [butterfly.re_part_3__12_ _396_ start_bF$buf5] _398_ d_lut_OAI21X1
AOAI21X1_83 [_397_ _398_ _394_] _9__12_ d_lut_OAI21X1
ANAND2X1_50 [X3_imag_13_ _128__bF$buf3] _399_ d_lut_NAND2X1
AOAI21X1_84 [butterfly.re_part_3__12_ _396_ butterfly.re_part_3__13_] _400_ d_lut_OAI21X1
ANAND2X1_51 [_199_ _200_] _401_ d_lut_NAND2X1
AOAI21X1_85 [_396_ _401_ _400_] _402_ d_lut_OAI21X1
AOAI21X1_86 [_128__bF$buf2 _402_ _399_] _9__13_ d_lut_OAI21X1
ANOR2X1_62 [butterfly.re_part_3__12_ _396_] _403_ d_lut_NOR2X1
AAOI21X1_15 [_403_ _200_ _201_] _404_ d_lut_AOI21X1
ANOR3X1_1 [butterfly.re_part_3__14_ _401_ _396_] _405_ d_lut_NOR3X1
AOR2X2_4 [_405_ _128__bF$buf1] _406_ d_lut_OR2X2
ANAND2X1_52 [X3_imag_14_ _128__bF$buf0] _407_ d_lut_NAND2X1
AOAI21X1_87 [_404_ _406_ _407_] _9__14_ d_lut_OAI21X1
AINVX1_92 [X3_imag_15_] _408_ d_lut_INVX1
ANAND2X1_53 [start_bF$buf4 butterfly.re_part_3__15_] _409_ d_lut_NAND2X1
AOAI21X1_88 [start_bF$buf3 _408_ _409_] _410_ d_lut_OAI21X1
AOAI21X1_89 [_128__bF$buf7 _405_ _410_] _411_ d_lut_OAI21X1
AOAI21X1_90 [butterfly.re_part_3__15_ _406_ _411_] _9__15_ d_lut_OAI21X1
AINVX1_93 [X3_real_8_] _412_ d_lut_INVX1
ANAND2X1_54 [start_bF$buf2 butterfly.re_part_2__8_] _413_ d_lut_NAND2X1
AOAI21X1_91 [start_bF$buf1 _412_ _413_] _10__8_ d_lut_OAI21X1
AINVX1_94 [X3_real_9_] _414_ d_lut_INVX1
ANAND2X1_55 [start_bF$buf0 butterfly.re_part_2__9_] _415_ d_lut_NAND2X1
AOAI21X1_92 [start_bF$buf8 _414_ _415_] _10__9_ d_lut_OAI21X1
AINVX1_95 [X3_real_10_] _416_ d_lut_INVX1
ANAND2X1_56 [start_bF$buf7 butterfly.re_part_2__10_] _417_ d_lut_NAND2X1
AOAI21X1_93 [start_bF$buf6 _416_ _417_] _10__10_ d_lut_OAI21X1
AINVX1_96 [X3_real_11_] _418_ d_lut_INVX1
ANAND2X1_57 [start_bF$buf5 butterfly.re_part_2__11_] _419_ d_lut_NAND2X1
AOAI21X1_94 [start_bF$buf4 _418_ _419_] _10__11_ d_lut_OAI21X1
AINVX1_97 [X3_real_12_] _420_ d_lut_INVX1
ANAND2X1_58 [start_bF$buf3 butterfly.re_part_2__12_] _421_ d_lut_NAND2X1
AOAI21X1_95 [start_bF$buf2 _420_ _421_] _10__12_ d_lut_OAI21X1
AINVX1_98 [X3_real_13_] _422_ d_lut_INVX1
ANAND2X1_59 [start_bF$buf1 butterfly.re_part_2__13_] _423_ d_lut_NAND2X1
AOAI21X1_96 [start_bF$buf0 _422_ _423_] _10__13_ d_lut_OAI21X1
AINVX1_99 [X3_real_14_] _424_ d_lut_INVX1
ANAND2X1_60 [start_bF$buf8 butterfly.re_part_2__14_] _425_ d_lut_NAND2X1
AOAI21X1_97 [start_bF$buf7 _424_ _425_] _10__14_ d_lut_OAI21X1
AINVX1_100 [X3_real_15_] _426_ d_lut_INVX1
ANAND2X1_61 [start_bF$buf6 butterfly.re_part_2__15_] _427_ d_lut_NAND2X1
AOAI21X1_98 [start_bF$buf5 _426_ _427_] _10__15_ d_lut_OAI21X1
AINVX1_101 [X1_real_8_] _428_ d_lut_INVX1
AOAI21X1_99 [start_bF$buf4 _428_ _413_] _7__8_ d_lut_OAI21X1
AINVX1_102 [X1_real_9_] _429_ d_lut_INVX1
AOAI21X1_100 [start_bF$buf3 _429_ _415_] _7__9_ d_lut_OAI21X1
AINVX1_103 [X1_real_10_] _430_ d_lut_INVX1
AOAI21X1_101 [start_bF$buf2 _430_ _417_] _7__10_ d_lut_OAI21X1
AINVX1_104 [X1_real_11_] _431_ d_lut_INVX1
AOAI21X1_102 [start_bF$buf1 _431_ _419_] _7__11_ d_lut_OAI21X1
AINVX1_105 [X1_real_12_] _432_ d_lut_INVX1
AOAI21X1_103 [start_bF$buf0 _432_ _421_] _7__12_ d_lut_OAI21X1
AINVX1_106 [X1_real_13_] _433_ d_lut_INVX1
AOAI21X1_104 [start_bF$buf8 _433_ _423_] _7__13_ d_lut_OAI21X1
AINVX1_107 [X1_real_14_] _434_ d_lut_INVX1
AOAI21X1_105 [start_bF$buf7 _434_ _425_] _7__14_ d_lut_OAI21X1
AINVX1_108 [X1_real_15_] _435_ d_lut_INVX1
AOAI21X1_106 [start_bF$buf6 _435_ _427_] _7__15_ d_lut_OAI21X1
ANOR2X1_63 [butterfly.re_part_0__0_ _316_] _436_ d_lut_NOR2X1
AXNOR2X1_11 [butterfly.re_part_0__1_ butterfly.re_part_1__1_] _437_ d_lut_XNOR2X1
ANAND2X1_62 [butterfly.re_part_0__1_ _317_] _438_ d_lut_NAND2X1
ANOR2X1_64 [butterfly.re_part_0__1_ _317_] _439_ d_lut_NOR2X1
AOAI21X1_107 [_436_ _439_ _438_] _440_ d_lut_OAI21X1
AINVX1_109 [butterfly.re_part_0__2_] _441_ d_lut_INVX1
AINVX1_110 [butterfly.re_part_1__2_] _442_ d_lut_INVX1
ANAND2X1_63 [_441_ _442_] _443_ d_lut_NAND2X1
ANAND2X1_64 [butterfly.re_part_0__2_ butterfly.re_part_1__2_] _444_ d_lut_NAND2X1
ANAND2X1_65 [_444_ _443_] _445_ d_lut_NAND2X1
ANOR2X1_65 [butterfly.re_part_1__2_ _441_] _446_ d_lut_NOR2X1
AINVX1_111 [butterfly.re_part_1__3_] _447_ d_lut_INVX1
ANAND2X1_66 [butterfly.re_part_0__3_ _447_] _448_ d_lut_NAND2X1
AINVX1_112 [butterfly.re_part_0__3_] _449_ d_lut_INVX1
ANAND2X1_67 [butterfly.re_part_1__3_ _449_] _450_ d_lut_NAND2X1
ANAND2X1_68 [_448_ _450_] _451_ d_lut_NAND2X1
AAOI21X1_16 [_443_ _444_ _451_] _452_ d_lut_AOI21X1
AOAI21X1_108 [butterfly.re_part_0__3_ _447_ _446_] _453_ d_lut_OAI21X1
AOAI21X1_109 [_449_ butterfly.re_part_1__3_ _453_] _454_ d_lut_OAI21X1
AAOI21X1_17 [_452_ _440_ _454_] _455_ d_lut_AOI21X1
ANAND2X1_69 [butterfly.re_part_0__4_ _329_] _456_ d_lut_NAND2X1
ANAND2X1_70 [butterfly.re_part_1__4_ _236_] _457_ d_lut_NAND2X1
ANAND2X1_71 [_456_ _457_] _458_ d_lut_NAND2X1
AXNOR2X1_12 [butterfly.re_part_0__5_ butterfly.re_part_1__5_] _459_ d_lut_XNOR2X1
AINVX1_113 [butterfly.re_part_1__5_] _460_ d_lut_INVX1
AINVX1_114 [butterfly.re_part_0__5_] _461_ d_lut_INVX1
AOAI21X1_110 [_461_ butterfly.re_part_1__5_ _456_] _462_ d_lut_OAI21X1
AOAI21X1_111 [butterfly.re_part_0__5_ _460_ _462_] _463_ d_lut_OAI21X1
AINVX1_115 [_458_] _464_ d_lut_INVX1
ANAND2X1_72 [_459_ _464_] _465_ d_lut_NAND2X1
ANAND2X1_73 [_256_ _342_] _466_ d_lut_NAND2X1
ANAND2X1_74 [butterfly.re_part_0__6_ butterfly.re_part_1__6_] _467_ d_lut_NAND2X1
ANAND2X1_75 [_467_ _466_] _468_ d_lut_NAND2X1
ANAND2X1_76 [butterfly.re_part_0__7_ _352_] _469_ d_lut_NAND2X1
AINVX1_116 [butterfly.re_part_0__7_] _470_ d_lut_INVX1
ANAND2X1_77 [butterfly.re_part_1__7_ _470_] _471_ d_lut_NAND2X1
AAND2X2_12 [_469_ _471_] _472_ d_lut_AND2X2
ANAND2X1_78 [X2_real_8_ _128__bF$buf6] _473_ d_lut_NAND2X1
AXOR2X1_4 [butterfly.re_part_0__6_ butterfly.re_part_1__6_] _474_ d_lut_XOR2X1
ANAND2X1_79 [_469_ _471_] _475_ d_lut_NAND2X1
ANOR2X1_66 [_474_ _475_] _476_ d_lut_NOR2X1
ANAND3X1_8 [_464_ _459_ _476_] _477_ d_lut_NAND3X1
ANAND2X1_80 [butterfly.re_part_0__5_ _460_] _478_ d_lut_NAND2X1
ANAND2X1_81 [butterfly.re_part_1__5_ _461_] _479_ d_lut_NAND2X1
ANAND2X1_82 [_478_ _479_] _480_ d_lut_NAND2X1
AOAI21X1_112 [_456_ _480_ _478_] _481_ d_lut_OAI21X1
ANAND3X1_9 [butterfly.re_part_0__6_ _342_ _471_] _482_ d_lut_NAND3X1
AOAI21X1_113 [_470_ butterfly.re_part_1__7_ _482_] _483_ d_lut_OAI21X1
AAOI21X1_18 [_481_ _476_ _483_] _484_ d_lut_AOI21X1
AOAI21X1_114 [_477_ _455_ _484_] _485_ d_lut_OAI21X1
ANOR2X1_67 [butterfly.re_part_0__8_ butterfly.re_part_1__8_] _486_ d_lut_NOR2X1
ANOR2X1_68 [_276_ _358_] _487_ d_lut_NOR2X1
ANOR2X1_69 [_486_ _487_] _488_ d_lut_NOR2X1
AINVX1_117 [_488_] _489_ d_lut_INVX1
ANOR2X1_70 [_489_ _485_] _490_ d_lut_NOR2X1
AXNOR2X1_13 [butterfly.re_part_0__3_ butterfly.re_part_1__3_] _491_ d_lut_XNOR2X1
ANAND3X1_10 [_445_ _491_ _440_] _492_ d_lut_NAND3X1
ANAND3X1_11 [_448_ _453_ _492_] _493_ d_lut_NAND3X1
ANAND2X1_83 [_468_ _472_] _494_ d_lut_NAND2X1
ANOR2X1_71 [_494_ _465_] _495_ d_lut_NOR2X1
AINVX1_118 [_483_] _496_ d_lut_INVX1
AOAI21X1_115 [_463_ _494_ _496_] _497_ d_lut_OAI21X1
AAOI21X1_19 [_495_ _493_ _497_] _498_ d_lut_AOI21X1
AOAI21X1_116 [_488_ _498_ start_bF$buf5] _499_ d_lut_OAI21X1
AOAI21X1_117 [_490_ _499_ _473_] _8__8_ d_lut_OAI21X1
ANAND2X1_84 [X2_real_9_ _128__bF$buf5] _500_ d_lut_NAND2X1
ANAND2X1_85 [butterfly.re_part_0__8_ _358_] _501_ d_lut_NAND2X1
AOAI21X1_118 [_488_ _498_ _501_] _502_ d_lut_OAI21X1
ANOR2X1_72 [butterfly.re_part_0__9_ butterfly.re_part_1__9_] _503_ d_lut_NOR2X1
ANOR2X1_73 [_282_ _361_] _504_ d_lut_NOR2X1
ANOR2X1_74 [_503_ _504_] _505_ d_lut_NOR2X1
AINVX2_5 [_505_] _506_ d_lut_INVX2
AAND2X2_13 [_502_ _506_] _507_ d_lut_AND2X2
AOAI21X1_119 [_506_ _502_ start_bF$buf4] _508_ d_lut_OAI21X1
AOAI21X1_120 [_507_ _508_ _500_] _8__9_ d_lut_OAI21X1
ANAND2X1_86 [X2_real_10_ _128__bF$buf4] _509_ d_lut_NAND2X1
ANAND2X1_87 [butterfly.re_part_0__9_ _361_] _510_ d_lut_NAND2X1
AOAI21X1_121 [_501_ _505_ _510_] _511_ d_lut_OAI21X1
ANOR2X1_75 [_488_ _505_] _512_ d_lut_NOR2X1
AAOI21X1_20 [_485_ _512_ _511_] _513_ d_lut_AOI21X1
ANOR2X1_76 [butterfly.re_part_0__10_ butterfly.re_part_1__10_] _514_ d_lut_NOR2X1
ANOR2X1_77 [_283_ _362_] _515_ d_lut_NOR2X1
ANOR2X1_78 [_514_ _515_] _516_ d_lut_NOR2X1
AAND2X2_14 [_513_ _516_] _517_ d_lut_AND2X2
AOAI21X1_122 [_516_ _513_ start_bF$buf3] _518_ d_lut_OAI21X1
AOAI21X1_123 [_517_ _518_ _509_] _8__10_ d_lut_OAI21X1
AINVX1_119 [X2_real_11_] _519_ d_lut_INVX1
ANOR2X1_79 [_516_ _513_] _520_ d_lut_NOR2X1
ANOR2X1_80 [butterfly.re_part_1__10_ _283_] _521_ d_lut_NOR2X1
ANOR2X1_81 [butterfly.re_part_0__11_ butterfly.re_part_1__11_] _522_ d_lut_NOR2X1
ANOR2X1_82 [_284_ _363_] _523_ d_lut_NOR2X1
ANOR2X1_83 [_522_ _523_] _524_ d_lut_NOR2X1
AOAI21X1_124 [_521_ _520_ _524_] _525_ d_lut_OAI21X1
ANOR2X1_84 [_521_ _520_] _526_ d_lut_NOR2X1
AINVX1_120 [_524_] _527_ d_lut_INVX1
AAOI21X1_21 [_526_ _527_ _128__bF$buf3] _528_ d_lut_AOI21X1
AAOI22X1_2 [_128__bF$buf2 _519_ _525_ _528_] _8__11_ d_lut_AOI22X1
ANAND2X1_88 [X2_real_12_ _128__bF$buf1] _529_ d_lut_NAND2X1
ANOR2X1_85 [_516_ _524_] _530_ d_lut_NOR2X1
ANAND2X1_89 [_512_ _530_] _531_ d_lut_NAND2X1
AOAI21X1_125 [_522_ _523_ _521_] _532_ d_lut_OAI21X1
AOAI21X1_126 [_284_ butterfly.re_part_1__11_ _532_] _533_ d_lut_OAI21X1
AAOI21X1_22 [_511_ _530_ _533_] _534_ d_lut_AOI21X1