*SPEF "IEEE 1481.1999"
*DESIGN "cordic"
*DATE "13:02:44 Monday February 24, 2025"
*VENDOR "unknown"
*PROGRAM "qrouter"
*VERSION "unknown"
*DESIGN_FLOW "qflow"
*DIVIDER /
*DELIMITER :
*BUS_DELIMITER <>
*T_UNIT 1 PS
*C_UNIT 1 FF
*R_UNIT 1 OHM
*L_UNIT 1 HENRY

*NAME_MAP
*1 clk_bF_buf4
*2 CLKBUF1_1
*3 DFFSR_13
*4 DFFSR_8
*5 DFFSR_7
*6 DFFSR_6
*7 DFFSR_4
*8 DFFSR_5
*9 DFFSR_2
*10 clk_bF_buf3
*11 CLKBUF1_2
*12 DFFSR_27
*13 DFFSR_24
*14 DFFSR_16
*15 DFFSR_26
*16 DFFSR_23
*17 DFFSR_25
*18 DFFSR_28
*19 _2__bF_buf4
*20 BUFX4_1
*21 DFFSR_3
*22 DFFSR_30
*23 DFFSR_1
*24 DFFSR_6
*25 DFFSR_4
*26 DFFSR_2
*27 DFFSR_5
*28 _2__bF_buf3
*29 BUFX4_2
*30 DFFSR_27
*31 DFFSR_24
*32 DFFSR_23
*33 DFFSR_26
*34 DFFSR_25
*35 DFFSR_28
*36 DFFSR_29
*37 clk_bF_buf2
*38 CLKBUF1_3
*39 DFFSR_18
*40 DFFSR_19
*41 DFFSR_21
*42 DFFSR_20
*43 DFFSR_22
*44 DFFSR_17
*45 clk_bF_buf1
*46 CLKBUF1_4
*47 DFFSR_11
*48 DFFSR_15
*49 DFFSR_14
*50 DFFSR_12
*51 DFFSR_9
*52 DFFSR_10
*53 clk_bF_buf0
*54 CLKBUF1_5
*55 DFFSR_31
*56 DFFSR_32
*57 DFFSR_3
*58 DFFSR_30
*59 DFFSR_1
*60 DFFSR_29
*61 _2__bF_buf2
*62 BUFX4_3
*63 DFFSR_16
*64 DFFSR_21
*65 DFFSR_19
*66 DFFSR_20
*67 DFFSR_22
*68 DFFSR_17
*69 _2__bF_buf1
*70 BUFX4_4
*71 DFFSR_11
*72 DFFSR_14
*73 DFFSR_12
*74 DFFSR_9
*75 DFFSR_10
*76 DFFSR_18
*77 _2__bF_buf0
*78 BUFX4_5
*79 DFFSR_13
*80 DFFSR_32
*81 DFFSR_8
*82 DFFSR_7
*83 DFFSR_15
*84 DFFSR_31
*85 clk
*86 CLKBUF1_3
*87 CLKBUF1_4
*88 CLKBUF1_2
*89 CLKBUF1_5
*90 CLKBUF1_1
*91 _2_
*92 INVX8_1
*93 BUFX4_3
*94 BUFX4_2
*95 BUFX4_5
*96 BUFX4_4
*97 BUFX4_1
*98 _73_[4]
*99 DFFSR_21
*100 XNOR2X1_13
*101 OAI21X1_7
*102 INVX1_19
*103 BUFX2_5
*104 NOR3X1_1
*105 _73_[8]
*106 DFFSR_25
*107 BUFX2_9
*108 OAI21X1_1
*109 NOR3X1_3
*110 XNOR2X1_1
*111 INVX1_1
*112 _73_[6]
*113 DFFSR_23
*114 OAI21X1_8
*115 NOR3X1_2
*116 BUFX2_7
*117 XNOR2X1_14
*118 INVX1_21
*119 _73_[10]
*120 DFFSR_27
*121 XNOR2X1_2
*122 OAI21X1_2
*123 NOR3X1_4
*124 INVX1_3
*125 BUFX2_11
*126 _73_[12]
*127 DFFSR_29
*128 NOR3X1_5
*129 OAI21X1_3
*130 INVX1_5
*131 XNOR2X1_3
*132 BUFX2_13
*133 _73_[15]
*134 DFFSR_32
*135 OAI21X1_4
*136 AND2X2_1
*137 INVX1_8
*138 NOR2X1_1
*139 BUFX2_16
*140 _35_
*141 AND2X2_4
*142 NAND3X1_6
*143 NAND2X1_12
*144 NAND2X1_10
*145 NAND2X1_11
*146 XNOR2X1_6
*147 _74_[15]
*148 DFFSR_16
*149 XNOR2X1_11
*150 BUFX2_32
*151 NAND3X1_7
*152 INVX1_16
*153 XOR2X1_6
*154 _73_[0]
*155 DFFSR_17
*156 BUFX2_1
*157 XOR2X1_6
*158 NOR3X1_6
*159 OAI21X1_5
*160 INVX1_14
*161 _73_[2]
*162 DFFSR_19
*163 XNOR2X1_12
*164 NOR3X1_7
*165 OAI21X1_6
*166 INVX1_17
*167 BUFX2_3
*168 _73_[5]
*169 DFFSR_22
*170 BUFX2_6
*171 INVX1_20
*172 OAI21X1_7
*173 NOR3X1_1
*174 _58_
*175 NAND3X1_8
*176 NOR3X1_1
*177 XNOR2X1_13
*178 NAND2X1_16
*179 OAI21X1_7
*180 _68_
*181 NAND3X1_1
*182 NAND2X1_1
*183 OAI21X1_1
*184 XNOR2X1_1
*185 NOR3X1_3
*186 _73_[9]
*187 DFFSR_26
*188 BUFX2_10
*189 INVX1_2
*190 OAI21X1_1
*191 NOR3X1_3
*192 _73_[7]
*193 DFFSR_24
*194 INVX1_22
*195 OAI21X1_8
*196 BUFX2_8
*197 NOR3X1_2
*198 _63_
*199 NAND3X1_9
*200 NAND2X1_17
*201 XNOR2X1_14
*202 OAI21X1_8
*203 NOR3X1_2
*204 _3_
*205 NAND3X1_2
*206 NAND2X1_2
*207 OAI21X1_2
*208 NOR3X1_4
*209 XNOR2X1_2
*210 _73_[11]
*211 DFFSR_28
*212 BUFX2_12
*213 INVX1_4
*214 OAI21X1_2
*215 NOR3X1_4
*216 _8_
*217 NAND3X1_3
*218 NAND2X1_3
*219 XNOR2X1_3
*220 NOR3X1_5
*221 OAI21X1_3
*222 _73_[13]
*223 DFFSR_30
*224 BUFX2_14
*225 NOR3X1_5
*226 INVX1_6
*227 OAI21X1_3
*228 _73_[14]
*229 DFFSR_31
*230 OAI21X1_4
*231 XNOR2X1_4
*232 INVX1_7
*233 BUFX2_15
*234 _26_
*235 AND2X2_3
*236 AND2X2_4
*237 INVX1_10
*238 AOI21X1_1
*239 XOR2X1_2
*240 _74_[4]
*241 DFFSR_5
*242 BUFX2_21
*243 XOR2X1_2
*244 AOI21X1_1
*245 NAND2X1_7
*246 _74_[6]
*247 DFFSR_7
*248 BUFX2_23
*249 NAND2X1_9
*250 XOR2X1_3
*251 NAND2X1_8
*252 _74_[10]
*253 DFFSR_11
*254 XNOR2X1_8
*255 INVX1_13
*256 AND2X2_5
*257 BUFX2_27
*258 _74_[12]
*259 DFFSR_13
*260 XNOR2X1_9
*261 NAND3X1_6
*262 NAND2X1_13
*263 BUFX2_29
*264 _73_[1]
*265 DFFSR_18
*266 INVX1_15
*267 NOR3X1_6
*268 OAI21X1_5
*269 BUFX2_2
*270 _73_[3]
*271 DFFSR_20
*272 NOR3X1_7
*273 OAI21X1_6
*274 INVX1_18
*275 BUFX2_4
*276 _51_
*277 NAND3X1_7
*278 NAND2X1_15
*279 OAI21X1_6
*280 NOR3X1_7
*281 XNOR2X1_12
*282 _13_
*283 NAND3X1_4
*284 XNOR2X1_4
*285 OAI21X1_4
*286 NAND2X1_4
*287 _74_[0]
*288 DFFSR_1
*289 NOR2X1_1
*290 AND2X2_1
*291 BUFX2_17
*292 _19_
*293 AND2X2_1
*294 NOR2X1_2
*295 NAND2X1_6
*296 NOR2X1_3
*297 _74_[1]
*298 DFFSR_2
*299 NAND2X1_6
*300 NOR2X1_3
*301 BUFX2_18
*302 _22_
*303 INVX1_9
*304 NOR2X1_4
*305 AND2X2_2
*306 NOR2X1_5
*307 _74_[2]
*308 DFFSR_3
*309 NOR2X1_5
*310 BUFX2_19
*311 AND2X2_2
*312 _24_
*313 AND2X2_2
*314 XOR2X1_1
*315 AND2X2_3
*316 NOR2X1_6
*317 _74_[3]
*318 DFFSR_4
*319 BUFX2_20
*320 AND2X2_3
*321 XOR2X1_1
*322 _74_[5]
*323 DFFSR_6
*324 NAND2X1_7
*325 BUFX2_22
*326 AOI21X1_1
*327 _29_
*328 NOR2X1_7
*329 NOR2X1_8
*330 XOR2X1_3
*331 NAND2X1_8
*332 _74_[7]
*333 DFFSR_8
*334 XNOR2X1_5
*335 NAND2X1_9
*336 BUFX2_24
*337 _74_[8]
*338 DFFSR_9
*339 NAND2X1_10
*340 BUFX2_25
*341 INVX1_11
*342 _74_[9]
*343 DFFSR_10
*344 BUFX2_26
*345 XNOR2X1_7
*346 INVX1_12
*347 _74_[11]
*348 DFFSR_12
*349 BUFX2_28
*350 AND2X2_5
*351 XOR2X1_4
*352 _74_[13]
*353 DFFSR_14
*354 BUFX2_30
*355 NAND2X1_13
*356 XNOR2X1_10
*357 _74_[14]
*358 DFFSR_15
*359 XOR2X1_5
*360 NAND2X1_14
*361 BUFX2_31
*362 _28_
*363 NAND2X1_7
*364 NOR2X1_7
*365 NOR2X1_9
*366 _32_
*367 INVX1_11
*368 NOR2X1_10
*369 XNOR2X1_6
*370 _38_
*371 NOR2X1_10
*372 NAND2X1_11
*373 AND2X2_6
*374 _39_
*375 NAND2X1_11
*376 XNOR2X1_8
*377 NOR2X1_11
*378 _43_
*379 AND2X2_6
*380 NAND2X1_12
*381 NAND3X1_6
*382 _44_
*383 NAND2X1_12
*384 XNOR2X1_9
*385 NOR2X1_12
*386 _47_
*387 NOR2X1_12
*388 XOR2X1_5
*389 NAND2X1_14
*390 _52_
*391 INVX1_16
*392 NOR3X1_6
*393 OAI21X1_5
*394 _67_
*395 NOR3X1_1
*396 NAND3X1_1
*397 _65_
*398 INVX1_21
*399 NAND3X1_1
*400 _66_
*401 INVX1_22
*402 NAND3X1_1
*403 _64_
*404 OAI21X1_8
*405 NAND2X1_1
*406 _0_[7]
*407 NAND2X1_1
*408 DFFSR_24
*409 _0_[8]
*410 XNOR2X1_1
*411 DFFSR_25
*412 _69_
*413 OAI21X1_1
*414 NAND2X1_2
*415 _70_
*416 INVX1_1
*417 NAND3X1_2
*418 _71_
*419 INVX1_2
*420 NAND3X1_2
*421 _72_
*422 NOR3X1_2
*423 NAND3X1_2
*424 _0_[9]
*425 NAND2X1_2
*426 DFFSR_26
*427 _0_[10]
*428 XNOR2X1_2
*429 DFFSR_27
*430 _4_
*431 OAI21X1_2
*432 NAND2X1_3
*433 _5_
*434 INVX1_3
*435 NAND3X1_3
*436 _6_
*437 INVX1_4
*438 NAND3X1_3
*439 _7_
*440 NOR3X1_3
*441 NAND3X1_3
*442 _0_[11]
*443 NAND2X1_3
*444 DFFSR_28
*445 _0_[12]
*446 XNOR2X1_3
*447 DFFSR_29
*448 _9_
*449 OAI21X1_3
*450 NAND2X1_4
*451 _10_
*452 INVX1_5
*453 NAND3X1_4
*454 _11_
*455 INVX1_6
*456 NAND3X1_4
*457 _12_
*458 NOR3X1_4
*459 NAND3X1_4
*460 _0_[13]
*461 NAND2X1_4
*462 DFFSR_30
*463 _0_[14]
*464 XNOR2X1_4
*465 DFFSR_31
*466 _14_
*467 OAI21X1_4
*468 NAND2X1_5
*469 _15_
*470 INVX1_7
*471 NAND3X1_5
*472 _16_
*473 INVX1_8
*474 NAND3X1_5
*475 _17_
*476 NOR3X1_5
*477 NAND3X1_5
*478 _18_
*479 NAND3X1_5
*480 NAND2X1_5
*481 _0_[15]
*482 NAND2X1_5
*483 DFFSR_32
*484 _20_
*485 NOR2X1_1
*486 NOR2X1_2
*487 _1_[0]
*488 NOR2X1_2
*489 DFFSR_1
*490 _21_
*491 NAND2X1_6
*492 INVX1_9
*493 _23_
*494 NOR2X1_3
*495 NOR2X1_4
*496 _1_[1]
*497 NOR2X1_4
*498 DFFSR_2
*499 _25_
*500 NOR2X1_5
*501 NOR2X1_6
*502 _1_[2]
*503 NOR2X1_6
*504 DFFSR_3
*505 _1_[3]
*506 XOR2X1_1
*507 DFFSR_4
*508 _1_[4]
*509 XOR2X1_2
*510 DFFSR_5
*511 _27_
*512 INVX1_10
*513 NOR2X1_7
*514 _30_
*515 AOI21X1_1
*516 NOR2X1_8
*517 _1_[5]
*518 NOR2X1_8
*519 DFFSR_6
*520 _1_[6]
*521 XOR2X1_3
*522 DFFSR_7
*523 _31_
*524 NAND2X1_8
*525 XNOR2X1_5
*526 _1_[7]
*527 XNOR2X1_5
*528 DFFSR_8
*529 _33_
*530 NAND2X1_9
*531 NOR2X1_9
*532 _34_
*533 NOR2X1_9
*534 AND2X2_4
*535 _1_[8]
*536 XNOR2X1_6
*537 DFFSR_9
*538 _36_
*539 NAND2X1_10
*540 XNOR2X1_7
*541 _1_[9]
*542 XNOR2X1_7
*543 DFFSR_10
*544 _37_
*545 INVX1_12
*546 NOR2X1_10
*547 _1_[10]
*548 XNOR2X1_8
*549 DFFSR_11
*550 _40_
*551 INVX1_13
*552 NOR2X1_11
*553 _41_
*554 NOR2X1_11
*555 XOR2X1_4
*556 _1_[11]
*557 XOR2X1_4
*558 DFFSR_12
*559 _42_
*560 AND2X2_5
*561 AND2X2_6
*562 _1_[12]
*563 XNOR2X1_9
*564 DFFSR_13
*565 _45_
*566 NAND3X1_6
*567 XNOR2X1_10
*568 _1_[13]
*569 XNOR2X1_10
*570 DFFSR_14
*571 _46_
*572 NAND2X1_13
*573 NOR2X1_12
*574 _1_[14]
*575 XOR2X1_5
*576 DFFSR_15
*577 _48_
*578 NAND2X1_14
*579 XNOR2X1_11
*580 _1_[15]
*581 XNOR2X1_11
*582 DFFSR_16
*583 rst
*584 INVX8_1
*585 cosine[0]
*586 BUFX2_1
*587 cosine[1]
*588 BUFX2_2
*589 cosine[2]
*590 BUFX2_3
*591 cosine[3]
*592 BUFX2_4
*593 cosine[4]
*594 BUFX2_5
*595 cosine[5]
*596 BUFX2_6
*597 cosine[6]
*598 BUFX2_7
*599 cosine[7]
*600 BUFX2_8
*601 cosine[8]
*602 BUFX2_9
*603 cosine[9]
*604 BUFX2_10
*605 cosine[10]
*606 BUFX2_11
*607 cosine[11]
*608 BUFX2_12
*609 cosine[12]
*610 BUFX2_13
*611 cosine[13]
*612 BUFX2_14
*613 cosine[14]
*614 BUFX2_15
*615 cosine[15]
*616 BUFX2_16
*617 sine[0]
*618 BUFX2_17
*619 sine[1]
*620 BUFX2_18
*621 sine[2]
*622 BUFX2_19
*623 sine[3]
*624 BUFX2_20
*625 sine[4]
*626 BUFX2_21
*627 sine[5]
*628 BUFX2_22
*629 sine[6]
*630 BUFX2_23
*631 sine[7]
*632 BUFX2_24
*633 sine[8]
*634 BUFX2_25
*635 sine[9]
*636 BUFX2_26
*637 sine[10]
*638 BUFX2_27
*639 sine[11]
*640 BUFX2_28
*641 sine[12]
*642 BUFX2_29
*643 sine[13]
*644 BUFX2_30
*645 sine[14]
*646 BUFX2_31
*647 sine[15]
*648 BUFX2_32
*649 _0_[0]
*650 XOR2X1_6
*651 DFFSR_17
*652 _0_[1]
*653 NAND2X1_15
*654 DFFSR_18
*655 _0_[2]
*656 XNOR2X1_12
*657 DFFSR_19
*658 _0_[3]
*659 NAND2X1_16
*660 DFFSR_20
*661 _0_[4]
*662 XNOR2X1_13
*663 DFFSR_21
*664 _0_[5]
*665 NAND2X1_17
*666 DFFSR_22
*667 _0_[6]
*668 XNOR2X1_14
*669 DFFSR_23
*670 _49_
*671 INVX1_14
*672 NAND3X1_7
*673 _50_
*674 INVX1_15
*675 NAND3X1_7
*676 _53_
*677 OAI21X1_5
*678 NAND2X1_15
*679 _54_
*680 OAI21X1_6
*681 NAND2X1_16
*682 _55_
*683 INVX1_17
*684 NAND3X1_8
*685 _56_
*686 INVX1_18
*687 NAND3X1_8
*688 _57_
*689 NOR3X1_6
*690 NAND3X1_8
*691 _59_
*692 OAI21X1_7
*693 NAND2X1_17
*694 _60_
*695 INVX1_19
*696 NAND3X1_9
*697 _61_
*698 INVX1_20
*699 NAND3X1_9
*700 _62_
*701 NOR3X1_7
*702 NAND3X1_9

*PORTS
*85 I
*583 I
*585 O
*587 O
*589 O
*591 O
*593 O
*595 O
*597 O
*599 O
*601 O
*603 O
*605 O
*607 O
*609 O
*611 O
*613 O
*615 O
*617 O
*619 O
*621 O
*623 O
*625 O
*627 O
*629 O
*631 O
*633 O
*635 O
*637 O
*639 O
*641 O
*643 O
*645 O
*647 O

*D_NET *1 0.00173832
*CONN
*I *2:Y O *D CLKBUF1
*I *3:CLK I *L 0.0134469
*I *4:CLK I *L 0.0134469
*I *5:CLK I *L 0.0134469
*I *6:CLK I *L 0.0134469
*I *7:CLK I *L 0.0134469
*I *8:CLK I *L 0.0134469
*I *9:CLK I *L 0.0134469
*CAP
1 1_1 0.0003192
2 1_2 6.12e-05
3 1_3 0.00014208
4 1_4 0
5 1_5 0.00018936
6 1_6 8.112e-05
7 1_7 0.00026016
8 1_8 0
9 1_9 0.00037944
10 1_10 2.04e-05
11 1_11 0.0001308
12 1_12 6.72e-05
13 1_13 8.736e-05
*RES
1 *2:Y 1_1 4.2
2 1_1 1_2 0.7
3 1_2 *3:CLK 0
4 1_1 1_3 2.61333
5 1_3 1_4 0
6 1_4 *4:CLK 0
7 1_4 1_5 3.59333
8 1_5 1_6 1.58667
9 1_6 *5:CLK 0
10 1_5 1_7 2.22667
11 1_7 1_8 0
12 1_8 *6:CLK 0
13 1_8 1_9 4.34
14 1_9 1_10 0.233333
15 1_10 *7:CLK 0
16 1_10 1_11 1.63333
17 1_11 1_12 1.86667
18 1_12 *8:CLK 0
19 1_11 1_13 2.42667
20 1_13 *9:CLK 0
*END
*D_NET *10 0.00198144
*CONN
*I *11:Y O *D CLKBUF1
*I *12:CLK I *L 0.0134469
*I *13:CLK I *L 0.0134469
*I *14:CLK I *L 0.0134469
*I *15:CLK I *L 0.0134469
*I *16:CLK I *L 0.0134469
*I *17:CLK I *L 0.0134469
*I *18:CLK I *L 0.0134469
*CAP
1 10_1 0.00013488
2 10_2 0
3 10_3 6.72e-05
4 10_4 0.0003264
5 10_5 2.04e-05
6 10_6 0.0002232
7 10_7 0.0001344
8 10_8 4.728e-05
9 10_9 0.0001224
10 10_10 0.0003264
11 10_11 0.0002208
12 10_12 8.16e-05
13 10_13 0.00027648
*RES
1 *11:Y 10_1 3.08
2 10_1 10_2 0
3 10_2 *12:CLK 0
4 10_1 10_3 1.86667
5 10_3 10_4 3.73333
6 10_4 10_5 0.233333
7 10_5 *13:CLK 0
8 10_5 10_6 4.2
9 10_6 *14:CLK 0
10 10_3 10_7 3.73333
11 10_7 10_8 0.98
12 10_8 10_9 1.4
13 10_9 *15:CLK 0
14 10_8 10_10 3.73333
15 10_10 *16:CLK 0
16 10_7 10_11 1.53333
17 10_11 10_12 0.933333
18 10_12 *17:CLK 0
19 10_11 10_13 6.34667
20 10_13 *18:CLK 0
*END
*D_NET *19 0.0014256
*CONN
*I *20:Y O *D BUFX4
*I *21:R I *L 0.0357813
*I *22:S I *L 0.0323255
*I *23:R I *L 0.0357813
*I *24:R I *L 0.0357813
*I *25:R I *L 0.0357813
*I *26:R I *L 0.0357813
*I *27:R I *L 0.0357813
*CAP
1 19_1 0.0001428
2 19_2 2.04e-05
3 19_3 0.00027168
4 19_4 0.00024456
5 19_5 8.736e-05
6 19_6 0.0002448
7 19_7 2.04e-05
8 19_8 0.00014256
9 19_9 0.000102
10 19_10 0.00014904
*RES
1 *20:Y 19_1 1.63333
2 19_1 19_2 0.233333
3 19_2 *21:R 0
4 19_2 19_3 3.54667
5 19_3 *22:S 0
6 19_3 19_4 3.12667
7 19_4 *23:R 0
8 19_2 19_5 2.42667
9 19_5 *24:R 0
10 19_5 19_6 2.8
11 19_6 19_7 0.233333
12 19_7 *25:R 0
13 19_7 19_8 1.96
14 19_8 19_9 1.16667
15 19_9 *26:R 0
16 19_8 19_10 2.47333
17 19_10 *27:R 0
*END
*D_NET *28 0.00168792
*CONN
*I *29:Y O *D BUFX4
*I *30:S I *L 0.0323255
*I *31:S I *L 0.0323255
*I *32:S I *L 0.0323255
*I *33:S I *L 0.0323255
*I *34:R I *L 0.0357813
*I *35:R I *L 0.0357813
*I *36:R I *L 0.0357813
*CAP
1 28_1 2.04e-05
2 28_2 0.0001428
3 28_3 0.00013536
4 28_4 0
5 28_5 0.00015456
6 28_6 0
7 28_7 0.0004284
8 28_8 2.04e-05
9 28_9 0.00044064
10 28_10 2.04e-05
11 28_11 0.00012096
12 28_12 0.000204
*RES
1 *29:Y 28_1 0.233333
2 28_1 28_2 1.63333
3 28_2 *30:S 0
4 28_1 28_3 2.42667
5 28_3 28_4 0
6 28_4 *31:S 0
7 28_3 28_5 4.29333
8 28_5 28_6 0
9 28_6 *32:S 0
10 28_6 28_7 4.9
11 28_7 28_8 0.233333
12 28_8 *33:S 0
13 28_8 28_9 5.04
14 28_9 28_10 0.233333
15 28_10 *34:R 0
16 28_10 28_11 3.36
17 28_11 *35:R 0
18 28_11 28_12 2.33333
19 28_12 *36:R 0
*END
*D_NET *37 0.00186408
*CONN
*I *38:Y O *D CLKBUF1
*I *39:CLK I *L 0.0134469
*I *40:CLK I *L 0.0134469
*I *41:CLK I *L 0.0134469
*I *42:CLK I *L 0.0134469
*I *43:CLK I *L 0.0134469
*I *44:CLK I *L 0.0134469
*CAP
1 37_1 6.96e-05
2 37_2 9.48e-05
3 37_3 0.00041448
4 37_4 2.04e-05
5 37_5 0.00018288
6 37_6 0
7 37_7 0.00024336
8 37_8 0
9 37_9 0.00028368
10 37_10 4.08e-05
11 37_11 0.00051408
*RES
1 *38:Y 37_1 0.933333
2 37_1 37_2 1.63333
3 37_2 *39:CLK 0
4 37_1 37_3 5.18
5 37_3 37_4 0.233333
6 37_4 *40:CLK 0
7 37_4 37_5 3.08
8 37_5 37_6 0
9 37_6 *41:CLK 0
10 37_6 37_7 4.76
11 37_7 37_8 0
12 37_8 *42:CLK 0
13 37_8 37_9 5.88
14 37_9 37_10 0.466667
15 37_10 *43:CLK 0
16 37_9 37_11 5.88
17 37_11 *44:CLK 0
*END
*D_NET *45 0.00130392
*CONN
*I *46:Y O *D CLKBUF1
*I *47:CLK I *L 0.0134469
*I *48:CLK I *L 0.0134469
*I *49:CLK I *L 0.0134469
*I *50:CLK I *L 0.0134469
*I *51:CLK I *L 0.0134469
*I *52:CLK I *L 0.0134469
*CAP
1 45_1 4.92e-05
2 45_2 8.064e-05
3 45_3 0
4 45_4 0.00016968
5 45_5 0.00019488
6 45_6 0
7 45_7 0.00027984
8 45_8 0.00036672
9 45_9 2.04e-05
10 45_10 0.00014256
*RES
1 *46:Y 45_1 0.7
2 45_1 45_2 2.24
3 45_2 45_3 0
4 45_3 *47:CLK 0
5 45_3 45_4 2.38
6 45_4 *48:CLK 0
7 45_2 45_5 5.41333
8 45_5 45_6 0
9 45_6 *49:CLK 0
10 45_5 45_7 3.10667
11 45_7 *50:CLK 0
12 45_1 45_8 4.85333
13 45_8 45_9 0.233333
14 45_9 *51:CLK 0
15 45_9 45_10 1.96
16 45_10 *52:CLK 0
*END
*D_NET *53 0.00156024
*CONN
*I *54:Y O *D CLKBUF1
*I *55:CLK I *L 0.0134469
*I *56:CLK I *L 0.0134469
*I *57:CLK I *L 0.0134469
*I *58:CLK I *L 0.0134469
*I *59:CLK I *L 0.0134469
*I *60:CLK I *L 0.0134469
*CAP
1 53_1 6.96e-05
2 53_2 0.00018336
3 53_3 0.0001224
4 53_4 6.72e-05
5 53_5 0.00039984
6 53_6 2.04e-05
7 53_7 0.0003936
8 53_8 0
9 53_9 0.00014256
10 53_10 0.00016128
*RES
1 *54:Y 53_1 0.933333
2 53_1 53_2 2.42667
3 53_2 53_3 1.4
4 53_3 *55:CLK 0
5 53_2 53_4 1.86667
6 53_4 *56:CLK 0
7 53_1 53_5 6.44
8 53_5 53_6 0.233333
9 53_6 *57:CLK 0
10 53_6 53_7 5.6
11 53_7 53_8 0
12 53_8 *58:CLK 0
13 53_8 53_9 1.96
14 53_9 *59:CLK 0
15 53_7 53_10 4.48
16 53_10 *60:CLK 0
*END
*D_NET *61 0.00187056
*CONN
*I *62:Y O *D BUFX4
*I *63:R I *L 0.0357813
*I *64:S I *L 0.0323255
*I *65:S I *L 0.0323255
*I *66:S I *L 0.0323255
*I *67:R I *L 0.0357813
*I *68:S I *L 0.0323255
*CAP
1 61_1 0.000222
2 61_2 4.704e-05
3 61_3 0.00027744
4 61_4 2.04e-05
5 61_5 0.0002988
6 61_6 0.00030528
7 61_7 0.0002244
8 61_8 6.72e-05
9 61_9 0
10 61_10 0.000408
*RES
1 *62:Y 61_1 1.82
2 61_1 61_2 1.30667
3 61_2 *63:R 0
4 61_2 61_3 3.17333
5 61_3 61_4 0.233333
6 61_4 *64:S 0
7 61_4 61_5 3.96667
8 61_5 *65:S 0
9 61_1 61_6 4.48
10 61_6 61_7 2.56667
11 61_7 *66:S 0
12 61_6 61_8 1.86667
13 61_8 61_9 0
14 61_9 *67:R 0
15 61_9 61_10 4.66667
16 61_10 *68:S 0
*END
*D_NET *69 0.00144624
*CONN
*I *70:Y O *D BUFX4
*I *71:R I *L 0.0357813
*I *72:R I *L 0.0357813
*I *73:R I *L 0.0357813
*I *74:R I *L 0.0357813
*I *75:R I *L 0.0357813
*I *76:R I *L 0.0357813
*CAP
1 69_1 0.0001308
2 69_2 0.00012816
3 69_3 0.00010752
4 69_4 0
5 69_5 0.00048912
6 69_6 0.00028536
7 69_7 2.04e-05
8 69_8 0.000204
9 69_9 2.04e-05
10 69_10 6.048e-05
*RES
1 *70:Y 69_1 1.63333
2 69_1 69_2 2.89333
3 69_2 *71:R 0
4 69_2 69_3 2.98667
5 69_3 69_4 0
6 69_4 *72:R 0
7 69_4 69_5 6.25333
8 69_5 *73:R 0
9 69_1 69_6 3.59333
10 69_6 69_7 0.233333
11 69_7 *74:R 0
12 69_7 69_8 2.33333
13 69_8 69_9 0.233333
14 69_9 *75:R 0
15 69_9 69_10 1.68
16 69_10 *76:R 0
*END
*D_NET *77 0.00085728
*CONN
*I *78:Y O *D BUFX4
*I *79:R I *L 0.0357813
*I *80:R I *L 0.0357813
*I *81:R I *L 0.0357813
*I *82:R I *L 0.0357813
*I *83:R I *L 0.0357813
*I *84:R I *L 0.0357813
*CAP
1 77_1 7.8e-05
2 77_2 6.096e-05
3 77_3 1.344e-05
4 77_4 0
5 77_5 0.000204
6 77_6 2.04e-05
7 77_7 6.048e-05
8 77_8 8.736e-05
9 77_9 0.0002448
10 77_10 8.784e-05
*RES
1 *78:Y 77_1 0.606667
2 77_1 77_2 1.02667
3 77_2 77_3 0.373333
4 77_3 77_4 0
5 77_4 *79:R 0
6 77_4 77_5 2.33333
7 77_5 77_6 0.233333
8 77_6 *80:R 0
9 77_6 77_7 1.68
10 77_7 *81:R 0
11 77_4 77_8 2.42667
12 77_8 *82:R 0
13 77_2 77_9 2.8
14 77_9 *83:R 0
15 77_1 77_10 1.77333
16 77_10 *84:R 0
*END
*D_NET *85 0.00146424
*CONN
*P *85 O
*I *86:A I *L 0.0549205
*I *87:A I *L 0.0549205
*I *88:A I *L 0.0549205
*I *89:A I *L 0.0549205
*I *90:A I *L 0.0549205
*CAP
1 85_1 0.00039168
2 85_2 2.04e-05
3 85_3 0.00036648
4 85_4 2.04e-05
5 85_5 0.00045984
6 85_6 5.376e-05
7 85_7 6.048e-05
8 85_8 0
9 85_9 9.12e-05
*RES
1 *85 85_1 4.48
2 85_1 85_2 0.233333
3 85_2 *86:A 0
4 85_2 85_3 5.18
5 85_3 85_4 0.233333
6 85_4 *87:A 0
7 85_4 85_5 3.84
8 85_5 85_6 1.49333
9 85_6 *88:A 0
10 85_5 85_7 1.68
11 85_7 85_8 0
12 85_8 *89:A 0
13 85_7 85_9 1.30667
14 85_9 *90:A 0
*END
*D_NET *91 0.0014208
*CONN
*I *92:Y O *D INVX8
*I *93:A I *L 0.0204034
*I *94:A I *L 0.0204034
*I *95:A I *L 0.0204034
*I *96:A I *L 0.0204034
*I *97:A I *L 0.0204034
*CAP
1 91_1 8.64e-05
2 91_2 0.00038568
3 91_3 0.000102
4 91_4 0.0002016
5 91_5 0.00014784
6 91_6 0
7 91_7 0.00032568
8 91_8 0.0001716
*RES
1 *92:Y 91_1 0.56
2 91_1 *93:A 0
3 91_1 91_2 7.04667
4 91_2 91_3 1.16667
5 91_3 *94:A 0
6 91_2 91_4 5.6
7 91_4 91_5 1.30667
8 91_5 91_6 0
9 91_6 *95:A 0
10 91_6 91_7 4.71333
11 91_7 *96:A 0
12 91_4 91_8 2.1
13 91_8 *97:A 0
*END
*D_NET *98 0.0008484
*CONN
*I *99:Q O *D DFFSR
*I *100:B I *L 0.0524659
*I *101:A I *L 0.0265312
*I *102:A I *L 0.0134094
*I *103:A I *L 0.0134147
*I *104:A I *L 0.0310602
*CAP
1 98_1 0.0001728
2 98_2 0.0001416
3 98_3 0.00019584
4 98_4 5.76e-05
5 98_5 9.408e-05
6 98_6 4.08e-05
7 98_7 6.768e-05
8 98_8 7.8e-05
*RES
1 *99:Q 98_1 1.12
2 98_1 *100:B 0
3 98_1 98_2 3.26667
4 98_2 98_3 2.24
5 98_3 98_4 0.373333
6 98_4 *101:A 0
7 98_3 98_5 2.61333
8 98_5 98_6 0.466667
9 98_6 *102:A 0
10 98_5 98_7 1.21333
11 98_7 *103:A 0
12 98_2 98_8 0.606667
13 98_8 *104:A 0
*END
*D_NET *105 0.00053544
*CONN
*I *106:Q O *D DFFSR
*I *107:A I *L 0.0134147
*I *108:A I *L 0.0265312
*I *109:A I *L 0.0310602
*I *110:B I *L 0.0524659
*I *111:A I *L 0.0134094
*CAP
1 105_1 8.64e-05
2 105_2 0.00017616
3 105_3 5.376e-05
4 105_4 0
5 105_5 8.112e-05
6 105_6 8.4e-06
7 105_7 0.0001296
*RES
1 *106:Q 105_1 0.56
2 105_1 *107:A 0
3 105_1 105_2 2.89333
4 105_2 105_3 1.49333
5 105_3 105_4 0
6 105_4 *108:A 0
7 105_3 105_5 1.58667
8 105_5 *109:A 0
9 105_2 105_6 0.233333
10 105_6 *110:B 0
11 105_6 105_7 0.84
12 105_7 *111:A 0
*END
*D_NET *112 0.000756
*CONN
*I *113:Q O *D DFFSR
*I *114:A I *L 0.0265312
*I *115:A I *L 0.0310602
*I *116:A I *L 0.0134147
*I *117:B I *L 0.0524659
*I *118:A I *L 0.0134094
*CAP
1 112_1 0.00017544
2 112_2 0.00024408
3 112_3 4.032e-05
4 112_4 0.0001068
5 112_5 2.04e-05
6 112_6 7.44e-05
7 112_7 0
8 112_8 9.456e-05
*RES
1 *113:Q 112_1 2.00667
2 112_1 112_2 3.78
3 112_2 112_3 1.12
4 112_3 *114:A 0
5 112_2 112_4 1.07333
6 112_4 *115:A 0
7 112_1 112_5 0.233333
8 112_5 *116:A 0
9 112_5 112_6 1.4
10 112_6 112_7 0
11 112_7 *117:B 0
12 112_6 112_8 1.96
13 112_8 *118:A 0
*END
*D_NET *119 0.00094704
*CONN
*I *120:Q O *D DFFSR
*I *121:B I *L 0.0524659
*I *122:A I *L 0.0265312
*I *123:A I *L 0.0310602
*I *124:A I *L 0.0134094
*I *125:A I *L 0.0134147
*CAP
1 119_1 0.0001104
2 119_2 0.0001728
3 119_3 6.096e-05
4 119_4 0.0002448
5 119_5 5.376e-05
6 119_6 0
7 119_7 0.00030432
*RES
1 *120:Q 119_1 1.4
2 119_1 119_2 1.12
3 119_2 *121:B 0
4 119_1 119_3 1.02667
5 119_3 *122:A 0
6 119_3 119_4 1.58667
7 119_4 *123:A 0
8 119_1 119_5 1.49333
9 119_5 119_6 0
10 119_6 *124:A 0
11 119_5 119_7 5.78667
12 119_7 *125:A 0
*END
*D_NET *126 0.0012336
*CONN
*I *127:Q O *D DFFSR
*I *128:A I *L 0.0310602
*I *129:A I *L 0.0265312
*I *130:A I *L 0.0134094
*I *131:B I *L 0.0524659
*I *132:A I *L 0.0134147
*CAP
1 126_1 0.00026448
2 126_2 0
3 126_3 0.0001872
4 126_4 8.736e-05
5 126_5 5.76e-05
6 126_6 0.000306
7 126_7 5.304e-05
8 126_8 0.00027792
*RES
1 *127:Q 126_1 4.01333
2 126_1 126_2 0
3 126_2 *128:A 0
4 126_2 126_3 1.21333
5 126_3 *129:A 0
6 126_1 126_4 2.42667
7 126_4 126_5 0.373333
8 126_5 *130:A 0
9 126_4 126_6 3.5
10 126_6 126_7 0.606667
11 126_7 *131:B 0
12 126_6 126_8 4.38667
13 126_8 *132:A 0
*END
*D_NET *133 0.00125808
*CONN
*I *134:Q O *D DFFSR
*I *135:C I *L 0.0180101
*I *136:A I *L 0.0180033
*I *137:A I *L 0.0134094
*I *138:A I *L 0.0222369
*I *139:A I *L 0.0134147
*CAP
1 133_1 0
2 133_2 0.00010464
3 133_3 0.00028536
4 133_4 0.0001428
5 133_5 2.016e-05
6 133_6 0
7 133_7 0.00015504
8 133_8 2.04e-05
9 133_9 0.00052968
*RES
1 *134:Q 133_1 0
2 133_1 133_2 1.68
3 133_2 *135:C 0
4 133_1 133_3 3.59333
5 133_3 133_4 1.63333
6 133_4 *136:A 0
7 133_3 133_5 0.56
8 133_5 133_6 0
9 133_6 *137:A 0
10 133_6 133_7 1.77333
11 133_7 133_8 0.233333
12 133_8 *138:A 0
13 133_8 133_9 7.04667
14 133_9 *139:A 0
*END
*D_NET *140 0.00144768
*CONN
*I *141:Y O *D AND2X2
*I *142:C I *L 0.0226301
*I *143:B I *L 0.0180112
*I *144:B I *L 0.0180112
*I *145:B I *L 0.0180112
*I *146:A I *L 0.0435905
*CAP
1 140_1 0.00030744
2 140_2 0.00011544
3 140_3 0.00044088
4 140_4 0.0003276
5 140_5 2.04e-05
6 140_6 8.736e-05
7 140_7 0.00014856
*RES
1 *141:Y 140_1 3.14
2 140_1 140_2 1.54
3 140_2 *142:C 0
4 140_1 140_3 6.58
5 140_3 *143:B 0
6 140_3 140_4 3.03333
7 140_4 140_5 0.233333
8 140_5 *144:B 0
9 140_5 140_6 2.42667
10 140_6 *145:B 0
11 140_5 140_7 3.12667
12 140_7 *146:A 0
*END
*D_NET *147 0.00144792
*CONN
*I *148:Q O *D DFFSR
*I *149:B I *L 0.0524659
*I *150:A I *L 0.0134147
*I *151:A I *L 0.0222511
*I *152:A I *L 0.0134094
*I *153:B I *L 0.0524749
*CAP
1 147_1 0
2 147_2 0.00035832
3 147_3 6.72e-05
4 147_4 0.00026328
5 147_5 0.0003168
6 147_6 0.00012384
7 147_7 0.00018888
8 147_8 0.0001296
*RES
1 *148:Q 147_1 0
2 147_1 147_2 6.95333
3 147_2 *149:B 0
4 147_1 147_3 1.86667
5 147_3 147_4 5.64667
6 147_4 *150:A 0
7 147_3 147_5 2.2
8 147_5 147_6 1.50667
9 147_6 *151:A 0
10 147_5 147_7 4.24667
11 147_7 *152:A 0
12 147_7 147_8 0.84
13 147_8 *153:B 0
*END
*D_NET *154 0.00071448
*CONN
*I *155:Q O *D DFFSR
*I *156:A I *L 0.0134147
*I *157:A I *L 0.0435889
*I *158:A I *L 0.0310602
*I *159:A I *L 0.0265312
*I *160:A I *L 0.0134094
*CAP
1 154_1 0.00015504
2 154_2 6.12e-05
3 154_3 0.0001296
4 154_4 0.00010752
5 154_5 0
6 154_6 0.0001872
7 154_7 7.392e-05
*RES
1 *155:Q 154_1 1.77333
2 154_1 154_2 0.7
3 154_2 *156:A 0
4 154_2 154_3 0.84
5 154_3 *157:A 0
6 154_1 154_4 2.98667
7 154_4 154_5 0
8 154_5 *158:A 0
9 154_5 154_6 1.21333
10 154_6 *159:A 0
11 154_4 154_7 2.05333
12 154_7 *160:A 0
*END
*D_NET *161 0.00097224
*CONN
*I *162:Q O *D DFFSR
*I *163:B I *L 0.0524659
*I *164:A I *L 0.0310602
*I *165:A I *L 0.0265312
*I *166:A I *L 0.0134094
*I *167:A I *L 0.0134147
*CAP
1 161_1 0.00025776
2 161_2 6.72e-05
3 161_3 4.08e-05
4 161_4 8.736e-05
5 161_5 0
6 161_6 0.0002736
7 161_7 7.392e-05
8 161_8 0.0001716
*RES
1 *162:Q 161_1 3.82667
2 161_1 161_2 1.86667
3 161_2 161_3 0.466667
4 161_3 *163:B 0
5 161_2 161_4 2.42667
6 161_4 161_5 0
7 161_5 *164:A 0
8 161_5 161_6 1.77333
9 161_6 *165:A 0
10 161_4 161_7 2.05333
11 161_7 *166:A 0
12 161_1 161_8 2.1
13 161_8 *167:A 0
*END
*D_NET *168 0.00065952
*CONN
*I *169:Q O *D DFFSR
*I *170:A I *L 0.0134147
*I *171:A I *L 0.0134094
*I *172:C I *L 0.0180101
*I *173:B I *L 0.0311174
*CAP
1 168_1 0.00013464
2 168_2 6.12e-05
3 168_3 5.4e-05
4 168_4 0
5 168_5 8.064e-05
6 168_6 8.16e-05
7 168_7 0.00024744
*RES
1 *169:Q 168_1 1.54
2 168_1 168_2 0.7
3 168_2 *170:A 0
4 168_1 168_3 1.16667
5 168_3 168_4 0
6 168_4 *171:A 0
7 168_3 168_5 2.24
8 168_5 168_6 0.933333
9 168_6 *172:C 0
10 168_5 168_7 3.31333
11 168_7 *173:B 0
*END
*D_NET *174 0.00061992
*CONN
*I *175:Y O *D NAND3X1
*I *176:C I *L 0.0317844
*I *177:A I *L 0.0435905
*I *178:B I *L 0.0180112
*I *179:B I *L 0.0270702
*CAP
1 174_1 0.0001428
2 174_2 0.000204
3 174_3 4.08e-05
4 174_4 4.032e-05
5 174_5 3.36e-05
6 174_6 0.0001584
*RES
1 *175:Y 174_1 1.63333
2 174_1 174_2 2.33333
3 174_2 174_3 0.466667
4 174_3 *176:C 0
5 174_2 174_4 1.12
6 174_4 *177:A 0
7 174_1 174_5 0.933333
8 174_5 *178:B 0
9 174_5 174_6 1.02667
10 174_6 *179:B 0
*END
*D_NET *180 0.00113352
*CONN
*I *181:Y O *D NAND3X1
*I *182:B I *L 0.0180112
*I *183:B I *L 0.0270702
*I *184:A I *L 0.0435905
*I *185:C I *L 0.0317844
*CAP
1 180_1 0.0003468
2 180_2 2.04e-05
3 180_3 0.00048936
4 180_4 3.6e-05
5 180_5 5.76e-05
6 180_6 0.0001296
7 180_7 5.376e-05
*RES
1 *181:Y 180_1 3.96667
2 180_1 180_2 0.233333
3 180_2 *182:B 0
4 180_2 180_3 5.92667
5 180_3 180_4 0.233333
6 180_4 180_5 0.373333
7 180_5 *183:B 0
8 180_4 180_6 0.84
9 180_6 *184:A 0
10 180_3 180_7 1.49333
11 180_7 *185:C 0
*END
*D_NET *186 0.00077328
*CONN
*I *187:Q O *D DFFSR
*I *188:A I *L 0.0134147
*I *189:A I *L 0.0134094
*I *190:C I *L 0.0180101
*I *191:B I *L 0.0311174
*CAP
1 186_1 0.00017544
2 186_2 4.08e-05
3 186_3 2.04e-05
4 186_4 9.384e-05
5 186_5 0.0001548
6 186_6 0.000288
*RES
1 *187:Q 186_1 2.00667
2 186_1 186_2 0.466667
3 186_2 186_3 0.233333
4 186_3 *188:A 0
5 186_3 186_4 1.07333
6 186_4 *189:A 0
7 186_1 186_5 3.96667
8 186_5 *190:C 0
9 186_5 186_6 1.86667
10 186_6 *191:B 0
*END
*D_NET *192 0.00068376
*CONN
*I *193:Q O *D DFFSR
*I *194:A I *L 0.0134094
*I *195:C I *L 0.0180101
*I *196:A I *L 0.0134147
*I *197:B I *L 0.0311174
*CAP
1 192_1 0.00018288
2 192_2 0.00018984
3 192_3 0
4 192_4 8.064e-05
5 192_5 7.44e-05
6 192_6 0.000156
*RES
1 *193:Q 192_1 3.08
2 192_1 *194:A 0
3 192_1 192_2 2.94
4 192_2 192_3 0
5 192_3 *195:C 0
6 192_2 192_4 2.24
7 192_4 192_5 1.4
8 192_5 *196:A 0
9 192_4 192_6 1.49333
10 192_6 *197:B 0
*END
*D_NET *198 0.00064968
*CONN
*I *199:Y O *D NAND3X1
*I *200:A I *L 0.0177118
*I *201:A I *L 0.0435905
*I *202:B I *L 0.0270702
*I *203:C I *L 0.0317844
*CAP
1 198_1 5.76e-05
2 198_2 0.0002448
3 198_3 0.0001152
4 198_4 0.00017664
5 198_5 4.704e-05
6 198_6 8.4e-06
*RES
1 *199:Y 198_1 0.373333
2 198_1 *200:A 0
3 198_1 198_2 2.4
4 198_2 198_3 1.86667
5 198_3 *201:A 0
6 198_2 198_4 1.50667
7 198_4 198_5 1.30667
8 198_5 *202:B 0
9 198_4 198_6 0.233333
10 198_6 *203:C 0
*END
*D_NET *204 0.00096408
*CONN
*I *205:Y O *D NAND3X1
*I *206:A I *L 0.0177118
*I *207:B I *L 0.0270702
*I *208:C I *L 0.0317844
*I *209:A I *L 0.0435905
*CAP
1 204_1 0.000162
2 204_2 0.00014928
3 204_3 4.08e-05
4 204_4 6.72e-05
5 204_5 0.0002592
6 204_6 0.0002856
*RES
1 *205:Y 204_1 3.5
2 204_1 204_2 2.14667
3 204_2 204_3 0.466667
4 204_3 *206:A 0
5 204_2 204_4 1.86667
6 204_4 *207:B 0
7 204_4 204_5 1.68
8 204_5 *208:C 0
9 204_1 204_6 3.26667
10 204_6 *209:A 0
*END
*D_NET *210 0.0007872
*CONN
*I *211:Q O *D DFFSR
*I *212:A I *L 0.0134147
*I *213:A I *L 0.0134094
*I *214:C I *L 0.0180101
*I *215:B I *L 0.0311174
*CAP
1 210_1 0.0001728
2 210_2 0.00018
3 210_3 2.04e-05
4 210_4 0.0002448
5 210_5 2.04e-05
6 210_6 0.0001488
*RES
1 *211:Q 210_1 1.12
2 210_1 *212:A 0
3 210_1 210_2 1.77333
4 210_2 210_3 0.233333
5 210_3 *213:A 0
6 210_3 210_4 2.8
7 210_4 210_5 0.233333
8 210_5 *214:C 0
9 210_5 210_6 2.8
10 210_6 *215:B 0
*END
*D_NET *216 0.00091296
*CONN
*I *217:Y O *D NAND3X1
*I *218:B I *L 0.0180112
*I *219:A I *L 0.0435905
*I *220:C I *L 0.0317844
*I *221:B I *L 0.0270702
*CAP
1 216_1 9.48e-05
2 216_2 0.0001224
3 216_3 2.04e-05
4 216_4 0.0002052
5 216_5 0.00029736
6 216_6 0.0001728
*RES
1 *217:Y 216_1 1.63333
2 216_1 216_2 1.4
3 216_2 216_3 0.233333
4 216_3 *218:B 0
5 216_3 216_4 1.63333
6 216_4 *219:A 0
7 216_1 216_5 5.92667
8 216_5 *220:C 0
9 216_5 216_6 1.12
10 216_6 *221:B 0
*END
*D_NET *222 0.0007812
*CONN
*I *223:Q O *D DFFSR
*I *224:A I *L 0.0134147
*I *225:B I *L 0.0311174
*I *226:A I *L 0.0134094
*I *227:C I *L 0.0180101
*CAP
1 222_1 0.00025056
2 222_2 0.00020352
3 222_3 4.704e-05
4 222_4 4.08e-05
5 222_5 0.00019008
6 222_6 4.92e-05
*RES
1 *223:Q 222_1 4.29333
2 222_1 *224:A 0
3 222_1 222_2 2.98667
4 222_2 222_3 1.30667
5 222_3 222_4 0.466667
6 222_4 *225:B 0
7 222_3 222_5 2.61333
8 222_5 *226:A 0
9 222_2 222_6 0.7
10 222_6 *227:C 0
*END
*D_NET *228 0.0007764
*CONN
*I *229:Q O *D DFFSR
*I *230:A I *L 0.0265312
*I *231:B I *L 0.0524659
*I *232:A I *L 0.0134094
*I *233:A I *L 0.0134147
*CAP
1 228_1 0.00018
2 228_2 4.08e-05
3 228_3 5.76e-05
4 228_4 8.4e-06
5 228_5 3.36e-05
6 228_6 0.000456
*RES
1 *229:Q 228_1 1.77333
2 228_1 228_2 0.466667
3 228_2 *230:A 0
4 228_2 228_3 0.373333
5 228_3 *231:B 0
6 228_1 228_4 0.233333
7 228_4 228_5 0.933333
8 228_5 *232:A 0
9 228_4 228_6 8.77333
10 228_6 *233:A 0
*END
*D_NET *234 0.0007056
*CONN
*I *235:Y O *D AND2X2
*I *236:A I *L 0.0180033
*I *237:A I *L 0.0134094
*I *238:A I *L 0.0265613
*I *239:A I *L 0.0435889
*CAP
1 234_1 7.44e-05
2 234_2 0
3 234_3 0.00010128
4 234_4 2.04e-05
5 234_5 0.0001632
6 234_6 2.04e-05
7 234_7 0.00032592
*RES
1 *235:Y 234_1 1.4
2 234_1 234_2 0
3 234_2 *236:A 0
4 234_1 234_3 2.14667
5 234_3 234_4 0.233333
6 234_4 *237:A 0
7 234_4 234_5 1.86667
8 234_5 234_6 0.233333
9 234_6 *238:A 0
10 234_6 234_7 4.38667
11 234_7 *239:A 0
*END
*D_NET *240 0.00066
*CONN
*I *241:Q O *D DFFSR
*I *242:A I *L 0.0134147
*I *243:B I *L 0.0524749
*I *244:B I *L 0.0268633
*I *245:A I *L 0.0177118
*CAP
1 240_1 0.0001428
2 240_2 5.76e-05
3 240_3 0.000108
4 240_4 0.0002652
5 240_5 8.64e-05
*RES
1 *241:Q 240_1 1.63333
2 240_1 *242:A 0
3 240_1 240_2 0.373333
4 240_2 240_3 0.7
5 240_3 *243:B 0