*SPICE netlist created from BLIF module sincos by blif2BSpice
.include /usr/local/share/qflow/tech/osu035/osu035_stdcells.sp
.subckt sincos vdd gnd clk rst theta[0] theta[1] theta[2] theta[3] theta[4] theta[5] theta[6] theta[7] sine[0] sine[1] sine[2] sine[3] sine[4] sine[5] sine[6] sine[7] cosine[0] cosine[1] cosine[2] cosine[3] cosine[4] cosine[5] cosine[6] cosine[7] done 
XBUFX4_1 vdd gnd _644_ _644__bF$buf3 BUFX4
XBUFX4_2 vdd gnd _644_ _644__bF$buf2 BUFX4
XBUFX4_3 vdd gnd _644_ _644__bF$buf1 BUFX4
XBUFX4_4 vdd gnd _644_ _644__bF$buf0 BUFX4
XCLKBUF1_1 clk vdd gnd clk_bF$buf12 CLKBUF1
XCLKBUF1_2 clk vdd gnd clk_bF$buf11 CLKBUF1
XCLKBUF1_3 clk vdd gnd clk_bF$buf10 CLKBUF1
XCLKBUF1_4 clk vdd gnd clk_bF$buf9 CLKBUF1
XCLKBUF1_5 clk vdd gnd clk_bF$buf8 CLKBUF1
XCLKBUF1_6 clk vdd gnd clk_bF$buf7 CLKBUF1
XCLKBUF1_7 clk vdd gnd clk_bF$buf6 CLKBUF1
XCLKBUF1_8 clk vdd gnd clk_bF$buf5 CLKBUF1
XCLKBUF1_9 clk vdd gnd clk_bF$buf4 CLKBUF1
XCLKBUF1_10 clk vdd gnd clk_bF$buf3 CLKBUF1
XCLKBUF1_11 clk vdd gnd clk_bF$buf2 CLKBUF1
XCLKBUF1_12 clk vdd gnd clk_bF$buf1 CLKBUF1
XCLKBUF1_13 clk vdd gnd clk_bF$buf0 CLKBUF1
XBUFX4_5 vdd gnd _626_ _626__bF$buf3 BUFX4
XBUFX4_6 vdd gnd _626_ _626__bF$buf2 BUFX4
XBUFX4_7 vdd gnd _626_ _626__bF$buf1 BUFX4
XBUFX2_1 vdd gnd _626_ _626__bF$buf0 BUFX2
XBUFX4_8 vdd gnd _599_ _599__bF$buf3 BUFX4
XBUFX4_9 vdd gnd _599_ _599__bF$buf2 BUFX4
XBUFX4_10 vdd gnd _599_ _599__bF$buf1 BUFX4
XBUFX4_11 vdd gnd _599_ _599__bF$buf0 BUFX4
XBUFX4_12 vdd gnd x[6][7] x[6][7_bF$buf3] BUFX4
XBUFX4_13 vdd gnd x[6][7] x[6][7_bF$buf2] BUFX4
XBUFX4_14 vdd gnd x[6][7] x[6][7_bF$buf1] BUFX4
XBUFX4_15 vdd gnd x[6][7] x[6][7_bF$buf0] BUFX4
XBUFX4_16 vdd gnd y[6][7] y[6][7_bF$buf3] BUFX4
XBUFX4_17 vdd gnd y[6][7] y[6][7_bF$buf2] BUFX4
XBUFX4_18 vdd gnd y[6][7] y[6][7_bF$buf1] BUFX4
XBUFX4_19 vdd gnd y[6][7] y[6][7_bF$buf0] BUFX4
XBUFX4_20 vdd gnd _38_ _38__bF$buf3 BUFX4
XBUFX4_21 vdd gnd _38_ _38__bF$buf2 BUFX4
XBUFX4_22 vdd gnd _38_ _38__bF$buf1 BUFX4
XBUFX4_23 vdd gnd _38_ _38__bF$buf0 BUFX4
XBUFX2_2 vdd gnd _563_ _563__bF$buf3 BUFX2
XBUFX2_3 vdd gnd _563_ _563__bF$buf2 BUFX2
XBUFX2_4 vdd gnd _563_ _563__bF$buf1 BUFX2
XBUFX2_5 vdd gnd _563_ _563__bF$buf0 BUFX2
XBUFX4_24 vdd gnd y[5][7] y[5][7_bF$buf3] BUFX4
XBUFX4_25 vdd gnd y[5][7] y[5][7_bF$buf2] BUFX4
XBUFX4_26 vdd gnd y[5][7] y[5][7_bF$buf1] BUFX4
XBUFX2_6 vdd gnd y[5][7] y[5][7_bF$buf0] BUFX2
XBUFX4_27 vdd gnd _577_ _577__bF$buf3 BUFX4
XBUFX2_7 vdd gnd _577_ _577__bF$buf2 BUFX2
XBUFX2_8 vdd gnd _577_ _577__bF$buf1 BUFX2
XBUFX2_9 vdd gnd _577_ _577__bF$buf0 BUFX2
XINVX4_1 vdd gnd _7_[5] z[0][7] INVX4
XINVX1_1 z[6][1] _559_ vdd gnd INVX1
XINVX1_2 z[6][0] _21_[0] vdd gnd INVX1
XNOR2X1_1 vdd _21_[0] gnd _560_ _559_ NOR2X1
XNOR2X1_2 vdd z[6][0] gnd _561_ z[6][1] NOR2X1
XINVX1_3 z[6][2] _562_ vdd gnd INVX1
XINVX4_2 vdd gnd _563_ z[6][7] INVX4
XINVX1_4 z[6][3] _564_ vdd gnd INVX1
XNAND2X1_1 vdd _565_ gnd z[6][2] _560_ NAND2X1
XNAND2X1_2 vdd _566_ gnd _562_ _561_ NAND2X1
XNOR2X1_3 vdd _566_ gnd _567_ z[6][3] NOR2X1
XINVX1_5 z[6][5] _568_ vdd gnd INVX1
XINVX1_6 z[6][4] _569_ vdd gnd INVX1
XNAND2X1_3 vdd _570_ gnd _569_ _567_ NAND2X1
XNOR2X1_4 vdd _565_ gnd _571_ _564_ NOR2X1
XNAND2X1_4 vdd _572_ gnd z[6][4] _571_ NAND2X1
XOAI21X1_1 gnd vdd _568_ _572_ _573_ z[6][7] OAI21X1
XOAI21X1_2 gnd vdd z[6][5] _570_ _574_ _563__bF$buf2 OAI21X1
XINVX1_7 _574_ _575_ vdd gnd INVX1
XOAI21X1_3 gnd vdd z[6][6] _575_ _21_[7] _573_ OAI21X1
XINVX1_8 z[5][1] _20_[1] vdd gnd INVX1
XNOR2X1_5 vdd z[5][1] gnd _576_ z[5][2] NOR2X1
XINVX4_3 vdd gnd _577_ z[5][7] INVX4
XINVX1_9 z[5][2] _578_ vdd gnd INVX1
XNOR2X1_6 vdd _20_[1] gnd _579_ _578_ NOR2X1
XOAI21X1_4 gnd vdd _576_ _579_ _580_ _577__bF$buf0 OAI21X1
XOAI21X1_5 gnd vdd _578_ _20_[1] _581_ z[5][7] OAI21X1
XOAI21X1_6 gnd vdd _576_ _581_ _20_[2] _580_ OAI21X1
XOAI21X1_7 gnd vdd z[5][7] _576_ _582_ _581_ OAI21X1
XXNOR2X1_1 _582_ z[5][3] gnd vdd _20_[3] XNOR2X1
XINVX2_1 vdd gnd _583_ z[5][4] INVX2
XNAND2X1_5 vdd _584_ gnd z[5][3] _579_ NAND2X1
XINVX1_10 _576_ _585_ vdd gnd INVX1
XNOR2X1_7 vdd _585_ gnd _586_ z[5][3] NOR2X1
XNAND2X1_6 vdd _587_ gnd _577__bF$buf0 _586_ NAND2X1
XOAI21X1_8 gnd vdd _577__bF$buf0 _584_ _588_ _587_ OAI21X1
XXNOR2X1_2 _588_ _583_ gnd vdd _20_[4] XNOR2X1
XNAND2X1_7 vdd _589_ gnd _583_ _586_ NAND2X1
XNAND2X1_8 vdd _590_ gnd _577__bF$buf0 _589_ NAND2X1
XOAI21X1_9 gnd vdd _583_ _584_ _591_ z[5][7] OAI21X1
XNAND2X1_9 vdd _592_ gnd _591_ _590_ NAND2X1
XXNOR2X1_3 _592_ z[5][5] gnd vdd _20_[5] XNOR2X1
XINVX1_11 z[5][5] _593_ vdd gnd INVX1
XOAI21X1_10 gnd vdd z[5][7] _593_ _594_ _590_ OAI21X1
XNAND2X1_10 vdd _595_ gnd z[5][5] z[5][4] NAND2X1
XOAI21X1_11 gnd vdd _595_ _584_ _596_ z[5][7] OAI21X1
XOAI21X1_12 gnd vdd z[5][6] _594_ _20_[7] _596_ OAI21X1
XOAI21X1_13 gnd vdd _594_ _20_[7] _597_ z[5][6] OAI21X1
XNAND2X1_11 vdd _598_ gnd _596_ _20_[7] NAND2X1
XNAND2X1_12 vdd _20_[6] gnd _598_ _597_ NAND2X1
XINVX8_1 vdd gnd z[2][7] _599_ INVX8
XINVX1_12 z[2][1] _600_ vdd gnd INVX1
XINVX1_13 z[2][0] _17_[0] vdd gnd INVX1
XNAND2X1_13 vdd _601_ gnd _600_ _17_[0] NAND2X1
XNOR2X1_8 vdd _17_[0] gnd _602_ _600_ NOR2X1
XNOR2X1_9 vdd _602_ gnd _603_ _599__bF$buf1 NOR2X1
XNAND2X1_14 vdd _604_ gnd _599__bF$buf1 _602_ NAND2X1
XOAI21X1_14 gnd vdd z[2][1] z[2][0] _605_ _604_ OAI21X1
XOAI22X1_1 gnd vdd _605_ _603_ _599__bF$buf1 _601_ _17_[1] OAI22X1
XINVX1_14 z[2][2] _606_ vdd gnd INVX1
XOAI21X1_15 gnd vdd _599__bF$buf1 _601_ _607_ _604_ OAI21X1
XXNOR2X1_4 _607_ _606_ gnd vdd _17_[2] XNOR2X1
XINVX1_15 z[2][3] _608_ vdd gnd INVX1
XOR2X2_1 _609_ z[2][2] vdd gnd _601_ OR2X2
XOAI22X1_2 gnd vdd _609_ _599__bF$buf1 _606_ _604_ _610_ OAI22X1
XXNOR2X1_5 _610_ _608_ gnd vdd _17_[3] XNOR2X1
XOR2X2_2 _611_ z[2][3] vdd gnd _609_ OR2X2
XNAND2X1_15 vdd _612_ gnd z[2][2] _602_ NAND2X1
XNOR2X1_10 vdd _612_ gnd _613_ _608_ NOR2X1
XNAND2X1_16 vdd _614_ gnd _599__bF$buf0 _613_ NAND2X1
XOAI21X1_16 gnd vdd _599__bF$buf1 _611_ _615_ _614_ OAI21X1
XXNOR2X1_6 _615_ z[2][4] gnd vdd _17_[4] XNOR2X1
XNOR2X1_11 vdd _613_ gnd _616_ z[2][4] NOR2X1
XOAI21X1_17 gnd vdd z[2][3] _609_ _617_ z[2][4] OAI21X1
XNAND2X1_17 vdd _618_ gnd z[2][7] _617_ NAND2X1
XOAI21X1_18 gnd vdd z[2][7] _616_ _619_ _618_ OAI21X1
XXNOR2X1_7 _619_ z[2][5] gnd vdd _17_[5] XNOR2X1
XINVX1_16 z[2][5] _620_ vdd gnd INVX1
XAND2X2_1 vdd gnd _616_ _620_ _621_ AND2X2
XOAI21X1_19 gnd vdd _620_ _617_ _622_ z[2][7] OAI21X1
XOAI21X1_20 gnd vdd z[2][7] _621_ _623_ _622_ OAI21X1
XXNOR2X1_8 _623_ z[2][6] gnd vdd _17_[6] XNOR2X1
XNOR2X1_12 vdd _621_ gnd _624_ z[2][7] NOR2X1
XAOI21X1_1 gnd vdd z[2][6] _622_ _17_[7] _624_ AOI21X1
XINVX1_17 z[4][2] _19_[2] vdd gnd INVX1
XNOR2X1_13 vdd z[4][2] gnd _625_ z[4][3] NOR2X1
XINVX8_2 vdd gnd z[4][7] _626_ INVX8
XINVX1_18 z[4][3] _627_ vdd gnd INVX1
XNOR2X1_14 vdd _19_[2] gnd _628_ _627_ NOR2X1
XOAI21X1_21 gnd vdd _625_ _628_ _629_ _626__bF$buf3 OAI21X1
XOAI21X1_22 gnd vdd _627_ _19_[2] _630_ z[4][7] OAI21X1
XOAI21X1_23 gnd vdd _625_ _630_ _19_[3] _629_ OAI21X1
XOAI21X1_24 gnd vdd z[4][7] _625_ _631_ _630_ OAI21X1
XXNOR2X1_9 _631_ z[4][4] gnd vdd _19_[4] XNOR2X1
XINVX1_19 z[4][4] _632_ vdd gnd INVX1
XNAND2X1_18 vdd _633_ gnd _632_ _625_ NAND2X1
XINVX1_20 _633_ _634_ vdd gnd INVX1
XNAND2X1_19 vdd _635_ gnd z[4][4] _628_ NAND2X1
XNAND2X1_20 vdd _636_ gnd z[4][7] _635_ NAND2X1
XOAI21X1_25 gnd vdd z[4][7] _634_ _637_ _636_ OAI21X1
XXNOR2X1_10 _637_ z[4][5] gnd vdd _19_[5] XNOR2X1
XINVX1_21 z[4][5] _638_ vdd gnd INVX1
XAOI21X1_2 gnd vdd _634_ _638_ _639_ z[4][7] AOI21X1
XOAI21X1_26 gnd vdd _638_ _635_ _640_ z[4][7] OAI21X1
XOAI21X1_27 gnd vdd z[4][6] _639_ _19_[7] _640_ OAI21X1
XOAI21X1_28 gnd vdd _639_ _19_[7] _641_ z[4][6] OAI21X1
XNAND2X1_21 vdd _642_ gnd _640_ _19_[7] NAND2X1
XNAND2X1_22 vdd _19_[6] gnd _642_ _641_ NAND2X1
XINVX1_22 z[3][3] _18_[3] vdd gnd INVX1
XNOR2X1_15 vdd z[3][3] gnd _643_ z[3][4] NOR2X1
XINVX8_3 vdd gnd z[3][7] _644_ INVX8
XINVX1_23 z[3][4] _645_ vdd gnd INVX1
XNOR2X1_16 vdd _18_[3] gnd _646_ _645_ NOR2X1
XOAI21X1_29 gnd vdd _643_ _646_ _647_ _644__bF$buf3 OAI21X1
XOAI21X1_30 gnd vdd _645_ _18_[3] _648_ z[3][7] OAI21X1
XOAI21X1_31 gnd vdd _643_ _648_ _18_[4] _647_ OAI21X1
XOAI21X1_32 gnd vdd z[3][7] _643_ _649_ _648_ OAI21X1
XXNOR2X1_11 _649_ z[3][5] gnd vdd _18_[5] XNOR2X1
XNAND2X1_23 vdd _650_ gnd z[3][5] _644__bF$buf3 NAND2X1
XOAI21X1_33 gnd vdd z[3][7] _643_ _651_ _650_ OAI21X1
XNAND2X1_24 vdd _652_ gnd z[3][5] _646_ NAND2X1
XINVX1_24 _652_ _653_ vdd gnd INVX1
XOAI22X1_3 gnd vdd _653_ _644__bF$buf3 z[3][6] _651_ _18_[7] OAI22X1
XOAI21X1_34 gnd vdd _651_ _18_[7] _654_ z[3][6] OAI21X1
XOAI21X1_35 gnd vdd _644__bF$buf3 _653_ _655_ _18_[7] OAI21X1
XNAND2X1_25 vdd _18_[6] gnd _655_ _654_ NAND2X1
XXOR2X1_1 _14_[0] vdd x[7][7] y[7][0] gnd XOR2X1
XINVX4_4 vdd gnd _656_ z[7][7] INVX4
XINVX2_2 vdd gnd _657_ x[7][7] INVX2
XAOI21X1_3 gnd vdd _656_ y[7][0] _658_ _657_ AOI21X1
XOAI21X1_36 gnd vdd _656_ y[7][0] _659_ _658_ OAI21X1
XXNOR2X1_12 _659_ y[7][1] gnd vdd _14_[1] XNOR2X1
XNOR2X1_17 vdd y[7][2] gnd _660_ x[7][7] NOR2X1
XINVX1_25 y[7][2] _661_ vdd gnd INVX1
XNOR2X1_18 vdd _661_ gnd _662_ _657_ NOR2X1
XNOR2X1_19 vdd _662_ gnd _663_ _660_ NOR2X1
XOAI21X1_37 gnd vdd y[7][0] y[7][1] _664_ x[7][7] OAI21X1
XNAND2X1_26 vdd _665_ gnd y[7][0] y[7][1] NAND2X1
XINVX1_26 _665_ _666_ vdd gnd INVX1
XNAND2X1_27 vdd _667_ gnd z[7][7] x[7][7] NAND2X1
XOAI22X1_4 gnd vdd _666_ _667_ z[7][7] _664_ _668_ OAI22X1
XXOR2X1_2 _14_[2] vdd _668_ _663_ gnd XOR2X1
XOR2X2_3 _669_ y[7][1] vdd gnd y[7][0] OR2X2
XNAND2X1_28 vdd _670_ gnd x[7][7] _661_ NAND2X1
XOAI21X1_38 gnd vdd _669_ _670_ _671_ _656_ OAI21X1
XINVX1_27 _662_ _672_ vdd gnd INVX1
XOAI21X1_39 gnd vdd _665_ _672_ _673_ z[7][7] OAI21X1
XNAND2X1_29 vdd _674_ gnd _671_ _673_ NAND2X1
XXNOR2X1_13 _674_ y[7][3] gnd vdd _14_[3] XNOR2X1
XNAND2X1_30 vdd _675_ gnd y[7][2] y[7][3] NAND2X1
XNOR2X1_20 vdd _675_ gnd _676_ _665_ NOR2X1
XINVX1_28 _676_ _677_ vdd gnd INVX1
XNOR2X1_21 vdd _669_ gnd _678_ y[7][3] NOR2X1
XNAND3X1_1 _661_ vdd gnd _656_ _678_ _679_ NAND3X1
XOAI21X1_40 gnd vdd _656_ _677_ _680_ _679_ OAI21X1
XNAND2X1_31 vdd _681_ gnd x[7][7] _680_ NAND2X1
XXNOR2X1_14 _681_ y[7][4] gnd vdd _14_[4] XNOR2X1
XINVX1_29 y[7][5] _682_ vdd gnd INVX1
XNOR2X1_22 vdd y[7][4] gnd _683_ y[7][2] NOR2X1
XAOI21X1_4 gnd vdd _678_ _683_ _684_ _682_ AOI21X1
XNAND3X1_2 _683_ vdd gnd _682_ _678_ _685_ NAND3X1
XNOR2X1_23 vdd _685_ gnd _686_ _657_ NOR2X1
XOAI21X1_41 gnd vdd _684_ _686_ _687_ _656_ OAI21X1
XNAND2X1_32 vdd _688_ gnd x[7][7] y[7][4] NAND2X1
XOAI21X1_42 gnd vdd _688_ _677_ _689_ _682_ OAI21X1
XNAND2X1_33 vdd _690_ gnd y[7][4] y[7][5] NAND2X1
XNOR2X1_24 vdd _677_ gnd _691_ _690_ NOR2X1
XNOR2X1_25 vdd _691_ gnd _692_ _656_ NOR2X1
XAOI22X1_1 gnd vdd _689_ _692_ _693_ _657_ y[7][5] AOI22X1
XNAND2X1_34 vdd _14_[5] gnd _687_ _693_ NAND2X1
XXNOR2X1_15 x[7][7] y[7][6] gnd vdd _694_ XNOR2X1
XNAND2X1_35 vdd _695_ gnd x[7][7] _685_ NAND2X1
XOAI22X1_5 gnd vdd _695_ z[7][7] _667_ _691_ _696_ OAI22X1
XXNOR2X1_16 _696_ _694_ gnd vdd _14_[6] XNOR2X1
XXNOR2X1_17 x[7][7] y[7][7] gnd vdd _697_ XNOR2X1
XINVX1_30 y[7][6] _698_ vdd gnd INVX1
XOAI21X1_43 gnd vdd _656_ _657_ _699_ _698_ OAI21X1
XOAI21X1_44 gnd vdd z[7][7] _657_ _700_ y[7][6] OAI21X1
XAOI21X1_5 gnd vdd _699_ _700_ _701_ _696_ AOI21X1
XXOR2X1_3 _14_[7] vdd _697_ _701_ gnd XOR2X1
XINVX1_31 z[1][1] _702_ vdd gnd INVX1
XINVX1_32 z[1][0] _16_[0] vdd gnd INVX1
XNOR2X1_26 vdd _16_[0] gnd _703_ _702_ NOR2X1
XINVX2_3 vdd gnd _704_ z[1][7] INVX2
XNOR2X1_27 vdd z[1][0] gnd _705_ z[1][1] NOR2X1
XNAND2X1_36 vdd _706_ gnd _704_ _705_ NAND2X1
XINVX1_33 _705_ _707_ vdd gnd INVX1
XAOI21X1_6 gnd vdd _707_ z[1][7] _708_ _703_ AOI21X1
XAOI22X1_2 gnd vdd _706_ _708_ _16_[1] z[1][7] _703_ AOI22X1
XINVX1_34 _703_ _709_ vdd gnd INVX1
XOAI21X1_45 gnd vdd _704_ _709_ _710_ _706_ OAI21X1
XXNOR2X1_18 _710_ z[1][2] gnd vdd _16_[2] XNOR2X1
XINVX1_35 z[1][3] _711_ vdd gnd INVX1
XINVX1_36 z[1][2] _712_ vdd gnd INVX1
XOAI21X1_46 gnd vdd _702_ _16_[0] _713_ _712_ OAI21X1
XNAND3X1_3 z[1][2] vdd gnd _704_ _707_ _714_ NAND3X1
XOAI21X1_47 gnd vdd _704_ _713_ _715_ _714_ OAI21X1
XXNOR2X1_19 _715_ _711_ gnd vdd _16_[3] XNOR2X1
XOR2X2_4 _716_ z[1][3] vdd gnd _713_ OR2X2
XOAI22X1_6 gnd vdd _716_ _704_ _711_ _714_ _717_ OAI22X1
XXOR2X1_4 _16_[4] vdd z[1][4] _717_ gnd XOR2X1
XNAND2X1_37 vdd _718_ gnd z[1][4] z[1][3] NAND2X1
XNOR2X1_28 vdd _716_ gnd _719_ z[1][4] NOR2X1
XNAND2X1_38 vdd _720_ gnd z[1][7] _719_ NAND2X1
XOAI21X1_48 gnd vdd _714_ _718_ _721_ _720_ OAI21X1
XXNOR2X1_20 _721_ z[1][5] gnd vdd _16_[5] XNOR2X1
XINVX1_37 z[1][5] _722_ vdd gnd INVX1
XOAI22X1_7 gnd vdd _714_ _718_ z[1][7] _722_ _723_ OAI22X1
XOAI21X1_49 gnd vdd _722_ _719_ _724_ z[1][7] OAI21X1
XOAI21X1_50 gnd vdd z[1][6] _723_ _16_[7] _724_ OAI21X1
XOAI21X1_51 gnd vdd _723_ _16_[7] _725_ z[1][6] OAI21X1
XNAND2X1_39 vdd _726_ gnd _724_ _16_[7] NAND2X1
XNAND2X1_40 vdd _16_[6] gnd _726_ _725_ NAND2X1
XINVX1_38 z[0][1] _15_[1] vdd gnd INVX1
XINVX1_39 z[0][2] _727_ vdd gnd INVX1
XNAND2X1_41 vdd _728_ gnd _727_ _15_[1] NAND2X1
XINVX1_40 _728_ _729_ vdd gnd INVX1
XNOR2X1_29 vdd _15_[1] gnd _730_ _727_ NOR2X1
XOAI21X1_52 gnd vdd _730_ _729_ _731_ _7_[5] OAI21X1
XOAI21X1_53 gnd vdd _727_ _15_[1] _732_ z[0][7] OAI21X1
XOAI21X1_54 gnd vdd _729_ _732_ _15_[2] _731_ OAI21X1
XOAI21X1_55 gnd vdd z[0][7] _729_ _733_ _732_ OAI21X1
XXNOR2X1_21 _733_ z[0][3] gnd vdd _15_[3] XNOR2X1
XNAND2X1_42 vdd _734_ gnd z[0][3] _730_ NAND2X1
XNOR2X1_30 vdd _728_ gnd _735_ z[0][3] NOR2X1
XNAND2X1_43 vdd _736_ gnd _7_[5] _735_ NAND2X1
XOAI21X1_56 gnd vdd _7_[5] _734_ _737_ _736_ OAI21X1
XXNOR2X1_22 _737_ z[0][4] gnd vdd _15_[4] XNOR2X1
XAOI21X1_7 gnd vdd _730_ z[0][3] _738_ z[0][4] AOI21X1
XOAI21X1_57 gnd vdd z[0][3] _728_ _739_ z[0][4] OAI21X1
XNAND2X1_44 vdd _740_ gnd _7_[5] _739_ NAND2X1
XOAI21X1_58 gnd vdd _7_[5] _738_ _741_ _740_ OAI21X1
XXNOR2X1_23 _741_ z[0][5] gnd vdd _15_[5] XNOR2X1
XINVX1_41 z[0][6] _742_ vdd gnd INVX1
XINVX1_42 z[0][5] _743_ vdd gnd INVX1
XNAND2X1_45 vdd _744_ gnd _743_ _738_ NAND2X1
XINVX1_43 _744_ _745_ vdd gnd INVX1
XOAI21X1_59 gnd vdd _743_ _739_ _746_ _7_[5] OAI21X1
XOAI21X1_60 gnd vdd _7_[5] _745_ _747_ _746_ OAI21X1
XXNOR2X1_24 _747_ _742_ gnd vdd _15_[6] XNOR2X1
XOAI21X1_61 gnd vdd _743_ _739_ _748_ _742_ OAI21X1
XAOI22X1_3 gnd vdd _7_[5] _748_ _15_[7] _744_ z[0][6] AOI22X1
XINVX1_44 x[4][4] _749_ vdd gnd INVX1
XNAND2X1_46 vdd _750_ gnd y[4][0] _749_ NAND2X1
XINVX1_45 y[4][0] _751_ vdd gnd INVX1
XNAND2X1_47 vdd _752_ gnd x[4][4] _751_ NAND2X1
XNAND2X1_48 vdd _11_[0] gnd _750_ _752_ NAND2X1
XOR2X2_5 _753_ x[4][5] vdd gnd y[4][1] OR2X2
XNAND2X1_49 vdd _754_ gnd y[4][1] x[4][5] NAND2X1
XNAND2X1_50 vdd _755_ gnd _754_ _753_ NAND2X1
XNAND2X1_51 vdd _756_ gnd y[4][0] x[4][4] NAND2X1
XINVX1_46 _756_ _757_ vdd gnd INVX1
XOAI21X1_62 gnd vdd y[4][0] _749_ _758_ z[4][7] OAI21X1
XOAI21X1_63 gnd vdd z[4][7] _757_ _759_ _758_ OAI21X1
XXOR2X1_5 _11_[1] vdd _755_ _759_ gnd XOR2X1
XXNOR2X1_25 y[4][2] x[4][6] gnd vdd _760_ XNOR2X1
XINVX1_47 y[4][1] _761_ vdd gnd INVX1
XNOR2X1_31 vdd x[4][5] gnd _762_ y[4][1] NOR2X1
XAND2X2_2 vdd gnd y[4][1] x[4][5] _763_ AND2X2
XOAI21X1_64 gnd vdd _762_ _763_ _764_ _752_ OAI21X1
XOAI21X1_65 gnd vdd _761_ x[4][5] _765_ _764_ OAI21X1
XOAI21X1_66 gnd vdd _756_ _762_ _766_ _754_ OAI21X1
XNAND2X1_52 vdd _767_ gnd _626__bF$buf2 _766_ NAND2X1
XOAI21X1_67 gnd vdd _626__bF$buf2 _765_ _768_ _767_ OAI21X1
XXNOR2X1_26 _768_ _760_ gnd vdd _11_[2] XNOR2X1
XNOR2X1_32 vdd x[4][7] gnd _769_ y[4][3] NOR2X1
XAND2X2_3 vdd gnd y[4][3] x[4][7] _770_ AND2X2
XOR2X2_6 _771_ _769_ vdd gnd _770_ OR2X2
XINVX2_4 vdd gnd _772_ x[4][6] INVX2
XNAND2X1_53 vdd _773_ gnd y[4][2] _772_ NAND2X1
XINVX1_48 y[4][2] _774_ vdd gnd INVX1
XNAND2X1_54 vdd _775_ gnd x[4][6] _774_ NAND2X1
XNAND2X1_55 vdd _776_ gnd _773_ _775_ NAND2X1
XNOR2X1_33 vdd _761_ gnd _777_ x[4][5] NOR2X1
XAOI21X1_8 gnd vdd _755_ _752_ _778_ _777_ AOI21X1
XOAI21X1_68 gnd vdd _776_ _778_ _779_ _773_ OAI21X1
XNAND2X1_56 vdd _780_ gnd _766_ _776_ NAND2X1
XOAI21X1_69 gnd vdd _774_ _772_ _781_ _780_ OAI21X1
XNAND2X1_57 vdd _782_ gnd _626__bF$buf2 _781_ NAND2X1
XOAI21X1_70 gnd vdd _626__bF$buf2 _779_ _783_ _782_ OAI21X1
XXNOR2X1_27 _783_ _771_ gnd vdd _11_[3] XNOR2X1
XINVX2_5 vdd gnd _784_ x[4][7] INVX2
XINVX2_6 vdd gnd _785_ y[4][4] INVX2
XNAND2X1_58 vdd _786_ gnd _784_ _785_ NAND2X1
XNAND2X1_59 vdd _787_ gnd x[4][7] y[4][4] NAND2X1
XNAND2X1_60 vdd _788_ gnd _787_ _786_ NAND2X1
XOAI21X1_71 gnd vdd _769_ _770_ _789_ _760_ OAI21X1
XNOR2X1_34 vdd _774_ gnd _790_ x[4][6] NOR2X1
XINVX1_49 y[4][3] _791_ vdd gnd INVX1
XNOR2X1_35 vdd _791_ gnd _792_ x[4][7] NOR2X1
XAOI21X1_9 gnd vdd _771_ _790_ _793_ _792_ AOI21X1
XOAI21X1_72 gnd vdd _789_ _778_ _794_ _793_ OAI21X1
XAOI21X1_10 gnd vdd y[4][2] x[4][6] _795_ _770_ AOI21X1
XAOI22X1_4 gnd vdd _795_ _780_ _796_ _791_ _784_ AOI22X1
XNAND2X1_61 vdd _797_ gnd _626__bF$buf0 _796_ NAND2X1
XOAI21X1_73 gnd vdd _626__bF$buf0 _794_ _798_ _797_ OAI21X1
XXNOR2X1_28 _798_ _788_ gnd vdd _11_[4] XNOR2X1
XXNOR2X1_29 x[4][7] y[4][5] gnd vdd _799_ XNOR2X1
XINVX1_50 _799_ _800_ vdd gnd INVX1
XINVX1_51 _788_ _801_ vdd gnd INVX1
XNAND2X1_62 vdd _802_ gnd _801_ _796_ NAND2X1
XNAND3X1_4 _787_ vdd gnd _626__bF$buf0 _802_ _803_ NAND3X1
XNOR2X1_36 vdd _785_ gnd _804_ x[4][7] NOR2X1
XAOI21X1_11 gnd vdd _794_ _788_ _805_ _804_ AOI21X1
XOAI21X1_74 gnd vdd _626__bF$buf0 _805_ _806_ _803_ OAI21X1
XXNOR2X1_30 _806_ _800_ gnd vdd _11_[5] XNOR2X1
XNOR2X1_37 vdd _784_ gnd _807_ y[4][6] NOR2X1
XINVX1_52 y[4][6] _808_ vdd gnd INVX1
XNOR2X1_38 vdd _808_ gnd _809_ x[4][7] NOR2X1
XNOR2X1_39 vdd _809_ gnd _810_ _807_ NOR2X1
XINVX1_53 _810_ _811_ vdd gnd INVX1
XINVX1_54 y[4][5] _812_ vdd gnd INVX1
XNAND2X1_63 vdd _813_ gnd _785_ _812_ NAND2X1
XNAND2X1_64 vdd _814_ gnd _799_ _788_ NAND2X1
XINVX1_55 _814_ _815_ vdd gnd INVX1
XAOI22X1_5 gnd vdd _815_ _794_ _816_ _784_ _813_ AOI22X1
XINVX1_56 _769_ _817_ vdd gnd INVX1
XINVX1_57 x[4][5] _818_ vdd gnd INVX1
XOAI21X1_75 gnd vdd _761_ _818_ _819_ _756_ OAI21X1
XNAND2X1_65 vdd _820_ gnd _753_ _819_ NAND2X1
XOAI21X1_76 gnd vdd _760_ _820_ _821_ _795_ OAI21X1
XNOR2X1_40 vdd _788_ gnd _822_ _799_ NOR2X1
XNAND3X1_5 _822_ vdd gnd _817_ _821_ _823_ NAND3X1
XOAI21X1_77 gnd vdd y[4][4] y[4][5] _824_ x[4][7] OAI21X1
XNAND2X1_66 vdd _825_ gnd _824_ _823_ NAND2X1
XMUX2X1_1 z[4][7] vdd gnd _826_ _816_ _825_ MUX2X1
XXNOR2X1_31 _826_ _811_ gnd vdd _11_[6] XNOR2X1
XXNOR2X1_32 x[4][7] y[4][7] gnd vdd _827_ XNOR2X1
XAOI22X1_6 gnd vdd _822_ _796_ _828_ x[4][7] _813_ AOI22X1
XOAI21X1_78 gnd vdd _784_ _808_ _829_ _626__bF$buf1 OAI21X1
XINVX1_58 _829_ _830_ vdd gnd INVX1
XOAI21X1_79 gnd vdd _810_ _828_ _831_ _830_ OAI21X1
XNOR2X1_41 vdd _770_ gnd _832_ _769_ NOR2X1
XNOR2X1_42 vdd _776_ gnd _833_ _832_ NOR2X1
XOAI21X1_80 gnd vdd _769_ _770_ _834_ _790_ OAI21X1
XOAI21X1_81 gnd vdd _791_ x[4][7] _835_ _834_ OAI21X1
XAOI21X1_12 gnd vdd _833_ _765_ _836_ _835_ AOI21X1
XOAI21X1_82 gnd vdd y[4][4] y[4][5] _837_ _784_ OAI21X1
XOAI21X1_83 gnd vdd _814_ _836_ _838_ _837_ OAI21X1
XOAI21X1_84 gnd vdd y[4][6] _784_ _839_ z[4][7] OAI21X1
XINVX1_59 _839_ _840_ vdd gnd INVX1
XOAI21X1_85 gnd vdd _809_ _838_ _841_ _840_ OAI21X1
XNAND3X1_6 _831_ vdd gnd _827_ _841_ _842_ NAND3X1
XINVX1_60 _827_ _843_ vdd gnd INVX1
XAOI21X1_13 gnd vdd _825_ _811_ _844_ _829_ AOI21X1
XINVX1_61 _809_ _845_ vdd gnd INVX1
XAOI21X1_14 gnd vdd _816_ _845_ _846_ _839_ AOI21X1
XOAI21X1_86 gnd vdd _844_ _846_ _847_ _843_ OAI21X1
XNAND2X1_67 vdd _11_[7] gnd _842_ _847_ NAND2X1
XINVX2_7 vdd gnd _848_ x[6][6] INVX2
XNAND2X1_68 vdd _849_ gnd y[6][0] _848_ NAND2X1
XINVX1_62 y[6][0] _850_ vdd gnd INVX1
XNAND2X1_69 vdd _851_ gnd x[6][6] _850_ NAND2X1
XNAND2X1_70 vdd _13_[0] gnd _849_ _851_ NAND2X1
XOR2X2_7 _852_ x[6][7_bF$buf3] vdd gnd y[6][1] OR2X2
XNAND2X1_71 vdd _853_ gnd y[6][1] x[6][7_bF$buf2] NAND2X1
XNAND2X1_72 vdd _854_ gnd _853_ _852_ NAND2X1
XNAND2X1_73 vdd _855_ gnd y[6][0] x[6][6] NAND2X1
XINVX1_63 _855_ _856_ vdd gnd INVX1
XOAI21X1_87 gnd vdd y[6][0] _848_ _857_ z[6][7] OAI21X1
XOAI21X1_88 gnd vdd z[6][7] _856_ _858_ _857_ OAI21X1
XXOR2X1_6 _13_[1] vdd _854_ _858_ gnd XOR2X1
XXNOR2X1_33 x[6][7_bF$buf1] y[6][2] gnd vdd _859_ XNOR2X1
XINVX1_64 y[6][1] _860_ vdd gnd INVX1
XNOR2X1_43 vdd x[6][7_bF$buf0] gnd _861_ y[6][1] NOR2X1
XAND2X2_4 vdd gnd y[6][1] x[6][7_bF$buf3] _862_ AND2X2
XOAI21X1_89 gnd vdd _861_ _862_ _863_ _851_ OAI21X1
XOAI21X1_90 gnd vdd _860_ x[6][7_bF$buf2] _864_ _863_ OAI21X1
XOAI21X1_91 gnd vdd _855_ _861_ _865_ _853_ OAI21X1
XNAND2X1_74 vdd _866_ gnd _563__bF$buf1 _865_ NAND2X1
XOAI21X1_92 gnd vdd _563__bF$buf1 _864_ _867_ _866_ OAI21X1
XXNOR2X1_34 _867_ _859_ gnd vdd _13_[2] XNOR2X1
XXOR2X1_7 _868_ vdd y[6][3] x[6][7_bF$buf1] gnd XOR2X1
XINVX4_5 vdd gnd _869_ x[6][7_bF$buf0] INVX4
XINVX1_65 y[6][2] _870_ vdd gnd INVX1
XNOR2X1_44 vdd _860_ gnd _871_ x[6][7_bF$buf3] NOR2X1
XAOI21X1_15 gnd vdd _854_ _851_ _872_ _871_ AOI21X1
XOAI21X1_93 gnd vdd x[6][7_bF$buf2] _870_ _873_ _872_ OAI21X1
XOAI21X1_94 gnd vdd _869_ y[6][2] _874_ _873_ OAI21X1
XXOR2X1_8 _875_ vdd y[6][2] x[6][7_bF$buf1] gnd XOR2X1
XNAND2X1_75 vdd _876_ gnd _865_ _875_ NAND2X1
XOAI21X1_95 gnd vdd _869_ _870_ _877_ _876_ OAI21X1
XMUX2X1_2 z[6][7] vdd gnd _878_ _874_ _877_ MUX2X1
XXNOR2X1_35 _878_ _868_ gnd vdd _13_[3] XNOR2X1
XNOR2X1_45 vdd y[6][4] gnd _879_ x[6][7_bF$buf0] NOR2X1
XINVX1_66 y[6][4] _880_ vdd gnd INVX1
XNOR2X1_46 vdd _880_ gnd _881_ _869_ NOR2X1
XNOR2X1_47 vdd _881_ gnd _882_ _879_ NOR2X1
XINVX1_67 _882_ _883_ vdd gnd INVX1
XOAI21X1_96 gnd vdd y[6][2] y[6][3] _884_ _869_ OAI21X1
XINVX1_68 y[6][3] _885_ vdd gnd INVX1
XNAND2X1_76 vdd _886_ gnd _869_ _885_ NAND2X1
XNAND2X1_77 vdd _887_ gnd x[6][7_bF$buf3] y[6][3] NAND2X1
XNAND2X1_78 vdd _888_ gnd _887_ _886_ NAND2X1
XNAND2X1_79 vdd _889_ gnd _859_ _888_ NAND2X1
XOAI21X1_97 gnd vdd _889_ _872_ _890_ _884_ OAI21X1
XINVX1_69 _886_ _891_ vdd gnd INVX1
XOAI21X1_98 gnd vdd y[6][2] y[6][3] _892_ x[6][7_bF$buf2] OAI21X1
XOAI21X1_99 gnd vdd _891_ _876_ _893_ _892_ OAI21X1
XNAND2X1_80 vdd _894_ gnd _563__bF$buf2 _893_ NAND2X1
XOAI21X1_100 gnd vdd _563__bF$buf2 _890_ _895_ _894_ OAI21X1
XXNOR2X1_36 _895_ _883_ gnd vdd _13_[4] XNOR2X1
XNOR2X1_48 vdd y[6][5] gnd _896_ x[6][7_bF$buf1] NOR2X1
XINVX1_70 y[6][5] _897_ vdd gnd INVX1
XNOR2X1_49 vdd _897_ gnd _898_ _869_ NOR2X1
XNOR2X1_50 vdd _898_ gnd _899_ _896_ NOR2X1
XAOI21X1_16 gnd vdd _893_ _882_ _900_ _881_ AOI21X1
XNAND2X1_81 vdd _901_ gnd _870_ _885_ NAND2X1
XNOR2X1_51 vdd _875_ gnd _902_ _868_ NOR2X1
XAOI22X1_7 gnd vdd _864_ _902_ _903_ _869_ _901_ AOI22X1
XNAND2X1_82 vdd _904_ gnd y[6][4] _869_ NAND2X1
XOAI21X1_101 gnd vdd _882_ _903_ _905_ _904_ OAI21X1
XMUX2X1_3 z[6][7] vdd gnd _906_ _905_ _900_ MUX2X1
XXOR2X1_9 _13_[5] vdd _899_ _906_ gnd XOR2X1
XNOR2X1_52 vdd _869_ gnd _907_ y[6][6] NOR2X1
XINVX2_8 vdd gnd _908_ y[6][6] INVX2
XNOR2X1_53 vdd _908_ gnd _909_ x[6][7_bF$buf0] NOR2X1
XNOR2X1_54 vdd _909_ gnd _910_ _907_ NOR2X1
XINVX1_71 _910_ _911_ vdd gnd INVX1
XNAND2X1_83 vdd _912_ gnd _880_ _897_ NAND2X1
XNOR2X1_55 vdd _899_ gnd _913_ _882_ NOR2X1
XAOI22X1_8 gnd vdd _913_ _890_ _914_ _869_ _912_ AOI22X1
XNOR2X1_56 vdd _888_ gnd _915_ _859_ NOR2X1
XAOI22X1_9 gnd vdd _865_ _915_ _916_ x[6][7_bF$buf3] _901_ AOI22X1
XOAI21X1_102 gnd vdd y[6][4] y[6][5] _917_ x[6][7_bF$buf2] OAI21X1
XOAI21X1_103 gnd vdd x[6][7_bF$buf1] y[6][5] _918_ _882_ OAI21X1
XOAI21X1_104 gnd vdd _918_ _916_ _919_ _917_ OAI21X1
XMUX2X1_4 z[6][7] vdd gnd _920_ _914_ _919_ MUX2X1
XXNOR2X1_37 _920_ _911_ gnd vdd _13_[6] XNOR2X1
XXNOR2X1_38 x[6][7_bF$buf0] y[6][7_bF$buf3] gnd vdd _921_ XNOR2X1
XINVX1_72 _918_ _922_ vdd gnd INVX1
XAOI22X1_10 gnd vdd _893_ _922_ _923_ x[6][7_bF$buf3] _912_ AOI22X1
XOAI21X1_105 gnd vdd _869_ _908_ _924_ _563__bF$buf2 OAI21X1
XINVX1_73 _924_ _925_ vdd gnd INVX1
XOAI21X1_106 gnd vdd _910_ _923_ _926_ _925_ OAI21X1
XOAI21X1_107 gnd vdd y[6][4] y[6][5] _927_ _869_ OAI21X1
XINVX1_74 _913_ _928_ vdd gnd INVX1
XOAI21X1_108 gnd vdd _903_ _928_ _929_ _927_ OAI21X1
XOAI21X1_109 gnd vdd y[6][6] _869_ _930_ z[6][7] OAI21X1
XINVX1_75 _930_ _931_ vdd gnd INVX1
XOAI21X1_110 gnd vdd _909_ _929_ _932_ _931_ OAI21X1
XNAND3X1_7 _926_ vdd gnd _921_ _932_ _933_ NAND3X1
XINVX1_76 _921_ _934_ vdd gnd INVX1
XAOI21X1_17 gnd vdd _919_ _911_ _935_ _924_ AOI21X1
XINVX1_77 _909_ _936_ vdd gnd INVX1
XAOI21X1_18 gnd vdd _914_ _936_ _937_ _930_ AOI21X1
XOAI21X1_111 gnd vdd _935_ _937_ _938_ _934_ OAI21X1
XNAND2X1_84 vdd _13_[7] gnd _933_ _938_ NAND2X1
XINVX1_78 x[5][5] _939_ vdd gnd INVX1
XNAND2X1_85 vdd _940_ gnd y[5][0] _939_ NAND2X1
XINVX1_79 y[5][0] _941_ vdd gnd INVX1
XNAND2X1_86 vdd _942_ gnd x[5][5] _941_ NAND2X1
XNAND2X1_87 vdd _12_[0] gnd _940_ _942_ NAND2X1
XOR2X2_8 _943_ x[5][6] vdd gnd y[5][1] OR2X2
XNAND2X1_88 vdd _944_ gnd y[5][1] x[5][6] NAND2X1
XNAND2X1_89 vdd _945_ gnd _944_ _943_ NAND2X1
XNAND2X1_90 vdd _946_ gnd y[5][0] x[5][5] NAND2X1
XINVX1_80 _946_ _947_ vdd gnd INVX1
XOAI21X1_112 gnd vdd y[5][0] _939_ _948_ z[5][7] OAI21X1
XOAI21X1_113 gnd vdd z[5][7] _947_ _949_ _948_ OAI21X1
XXOR2X1_10 _12_[1] vdd _945_ _949_ gnd XOR2X1
XXNOR2X1_39 y[5][2] x[5][7] gnd vdd _950_ XNOR2X1
XINVX1_81 y[5][1] _951_ vdd gnd INVX1
XNOR2X1_57 vdd x[5][6] gnd _952_ y[5][1] NOR2X1
XAND2X2_5 vdd gnd y[5][1] x[5][6] _953_ AND2X2
XOAI21X1_114 gnd vdd _952_ _953_ _954_ _942_ OAI21X1
XOAI21X1_115 gnd vdd _951_ x[5][6] _955_ _954_ OAI21X1
XOAI21X1_116 gnd vdd _946_ _952_ _956_ _944_ OAI21X1
XNAND2X1_91 vdd _957_ gnd _577__bF$buf3 _956_ NAND2X1
XOAI21X1_117 gnd vdd _577__bF$buf3 _955_ _958_ _957_ OAI21X1
XXNOR2X1_40 _958_ _950_ gnd vdd _12_[2] XNOR2X1
XXOR2X1_11 _959_ vdd y[5][3] x[5][7] gnd XOR2X1
XINVX4_6 vdd gnd _960_ x[5][7] INVX4
XINVX1_82 y[5][2] _961_ vdd gnd INVX1
XNOR2X1_58 vdd _951_ gnd _962_ x[5][6] NOR2X1
XAOI21X1_19 gnd vdd _945_ _942_ _963_ _962_ AOI21X1
XOAI21X1_118 gnd vdd _961_ x[5][7] _964_ _963_ OAI21X1
XOAI21X1_119 gnd vdd y[5][2] _960_ _965_ _964_ OAI21X1
XXOR2X1_12 _966_ vdd x[5][7] y[5][2] gnd XOR2X1
XNAND2X1_92 vdd _967_ gnd _956_ _966_ NAND2X1
XOAI21X1_120 gnd vdd _961_ _960_ _968_ _967_ OAI21X1
XMUX2X1_5 z[5][7] vdd gnd _969_ _965_ _968_ MUX2X1
XXNOR2X1_41 _969_ _959_ gnd vdd _12_[3] XNOR2X1
XNOR2X1_59 vdd y[5][4] gnd _970_ x[5][7] NOR2X1
XINVX1_83 y[5][4] _971_ vdd gnd INVX1
XNOR2X1_60 vdd _971_ gnd _972_ _960_ NOR2X1
XNOR2X1_61 vdd _972_ gnd _973_ _970_ NOR2X1
XINVX1_84 _973_ _974_ vdd gnd INVX1
XOAI21X1_121 gnd vdd y[5][2] y[5][3] _975_ _960_ OAI21X1
XINVX1_85 y[5][3] _976_ vdd gnd INVX1
XNAND2X1_93 vdd _977_ gnd _960_ _976_ NAND2X1
XNAND2X1_94 vdd _978_ gnd x[5][7] y[5][3] NAND2X1
XNAND2X1_95 vdd _979_ gnd _978_ _977_ NAND2X1
XNAND2X1_96 vdd _980_ gnd _950_ _979_ NAND2X1
XOAI21X1_122 gnd vdd _980_ _963_ _981_ _975_ OAI21X1
XINVX1_86 _977_ _982_ vdd gnd INVX1
XOAI21X1_123 gnd vdd y[5][2] y[5][3] _983_ x[5][7] OAI21X1
XOAI21X1_124 gnd vdd _982_ _967_ _984_ _983_ OAI21X1
XNAND2X1_97 vdd _985_ gnd _577__bF$buf3 _984_ NAND2X1
XOAI21X1_125 gnd vdd _577__bF$buf3 _981_ _986_ _985_ OAI21X1
XXNOR2X1_42 _986_ _974_ gnd vdd _12_[4] XNOR2X1
XNOR2X1_62 vdd y[5][5] gnd _987_ x[5][7] NOR2X1
XINVX2_9 vdd gnd _988_ y[5][5] INVX2
XNOR2X1_63 vdd _988_ gnd _989_ _960_ NOR2X1
XNOR2X1_64 vdd _989_ gnd _990_ _987_ NOR2X1
XAOI21X1_20 gnd vdd _984_ _973_ _991_ _972_ AOI21X1
XNAND2X1_98 vdd _992_ gnd _961_ _976_ NAND2X1
XNOR2X1_65 vdd _966_ gnd _993_ _959_ NOR2X1
XAOI22X1_11 gnd vdd _955_ _993_ _994_ _960_ _992_ AOI22X1
XNAND2X1_99 vdd _995_ gnd y[5][4] _960_ NAND2X1
XOAI21X1_126 gnd vdd _973_ _994_ _996_ _995_ OAI21X1
XMUX2X1_6 z[5][7] vdd gnd _997_ _996_ _991_ MUX2X1
XXOR2X1_13 _12_[5] vdd _990_ _997_ gnd XOR2X1
XNOR2X1_66 vdd _960_ gnd _998_ y[5][6] NOR2X1
XINVX2_10 vdd gnd _999_ y[5][6] INVX2
XNOR2X1_67 vdd _999_ gnd _1000_ x[5][7] NOR2X1
XNOR2X1_68 vdd _1000_ gnd _1001_ _998_ NOR2X1
XINVX1_87 _1001_ _1002_ vdd gnd INVX1
XNAND2X1_100 vdd _1003_ gnd _971_ _988_ NAND2X1
XNOR2X1_69 vdd _990_ gnd _1004_ _973_ NOR2X1
XAOI22X1_12 gnd vdd _1004_ _981_ _1005_ _960_ _1003_ AOI22X1
XNOR2X1_70 vdd _979_ gnd _1006_ _950_ NOR2X1
XAOI22X1_13 gnd vdd _956_ _1006_ _1007_ x[5][7] _992_ AOI22X1
XOAI21X1_127 gnd vdd y[5][4] y[5][5] _1008_ x[5][7] OAI21X1
XOAI21X1_128 gnd vdd x[5][7] y[5][5] _1009_ _973_ OAI21X1
XOAI21X1_129 gnd vdd _1009_ _1007_ _1010_ _1008_ OAI21X1
XMUX2X1_7 z[5][7] vdd gnd _1011_ _1005_ _1010_ MUX2X1
XXNOR2X1_43 _1011_ _1002_ gnd vdd _12_[6] XNOR2X1
XXNOR2X1_44 x[5][7] y[5][7_bF$buf3] gnd vdd _1012_ XNOR2X1
XINVX1_88 _1009_ _1013_ vdd gnd INVX1
XAOI22X1_14 gnd vdd _984_ _1013_ _1014_ x[5][7] _1003_ AOI22X1
XOAI21X1_130 gnd vdd _960_ _999_ _1015_ _577__bF$buf2 OAI21X1
XINVX1_89 _1015_ _1016_ vdd gnd INVX1
XOAI21X1_131 gnd vdd _1001_ _1014_ _1017_ _1016_ OAI21X1
XOAI21X1_132 gnd vdd y[5][4] y[5][5] _1018_ _960_ OAI21X1
XINVX1_90 _1004_ _1019_ vdd gnd INVX1
XOAI21X1_133 gnd vdd _994_ _1019_ _1020_ _1018_ OAI21X1
XOAI21X1_134 gnd vdd y[5][6] _960_ _1021_ z[5][7] OAI21X1
XINVX1_91 _1021_ _1022_ vdd gnd INVX1
XOAI21X1_135 gnd vdd _1000_ _1020_ _1023_ _1022_ OAI21X1
XNAND3X1_8 _1017_ vdd gnd _1012_ _1023_ _1024_ NAND3X1
XINVX1_92 _1012_ _1025_ vdd gnd INVX1
XAOI21X1_21 gnd vdd _1010_ _1002_ _1026_ _1015_ AOI21X1
XINVX1_93 _1000_ _1027_ vdd gnd INVX1
XAOI21X1_22 gnd vdd _1005_ _1027_ _1028_ _1021_ AOI21X1
XOAI21X1_136 gnd vdd _1026_ _1028_ _1029_ _1025_ OAI21X1
XNAND2X1_101 vdd _12_[7] gnd _1024_ _1029_ NAND2X1
XINVX2_11 vdd gnd _0_[0] y[1][7] INVX2
XNOR2X1_71 vdd _0_[0] gnd _0_[1] z[1][7] NOR2X1
XINVX1_94 y[1][5] _1030_ vdd gnd INVX1
XNOR2X1_72 vdd _1030_ gnd _1031_ y[1][7] NOR2X1
XNOR2X1_73 vdd _0_[0] gnd _1032_ y[1][5] NOR2X1
XNOR2X1_74 vdd _1032_ gnd _0_[5] _1031_ NOR2X1
XINVX1_95 _0_[5] _0_[3] vdd gnd INVX1
XXNOR2X1_45 _0_[5] _704_ gnd vdd _8_[4] XNOR2X1
XOAI21X1_137 gnd vdd y[1][7] _1030_ _1033_ z[1][7] OAI21X1
XOAI21X1_138 gnd vdd _0_[0] y[1][5] _8_[7] _1033_ OAI21X1
XINVX1_96 _8_[4] _8_[6] vdd gnd INVX1
XINVX1_97 x[3][3] _1034_ vdd gnd INVX1
XNAND2X1_102 vdd _1035_ gnd y[3][0] _1034_ NAND2X1
XINVX1_98 y[3][0] _1036_ vdd gnd INVX1
XNAND2X1_103 vdd _1037_ gnd x[3][3] _1036_ NAND2X1
XNAND2X1_104 vdd _10_[0] gnd _1035_ _1037_ NAND2X1
XOR2X2_9 _1038_ x[3][4] vdd gnd y[3][1] OR2X2
XNAND2X1_105 vdd _1039_ gnd y[3][1] x[3][4] NAND2X1
XNAND2X1_106 vdd _1040_ gnd _1039_ _1038_ NAND2X1
XNAND2X1_107 vdd _1041_ gnd y[3][0] x[3][3] NAND2X1