*SPEF "IEEE 1481.1999"
*DESIGN "sincos"
*DATE "02:05:23 Thursday April 10, 2025"
*VENDOR "unknown"
*PROGRAM "qrouter"
*VERSION "unknown"
*DESIGN_FLOW "qflow"
*DIVIDER /
*DELIMITER :
*BUS_DELIMITER <>
*T_UNIT 1 PS
*C_UNIT 1 FF
*R_UNIT 1 OHM
*L_UNIT 1 HENRY

*NAME_MAP
*1 z[5][7]
*2 DFFPOSX1_26
*3 MUX2X1_5
*4 OAI21X1_113
*5 OAI21X1_112
*6 OAI21X1_255
*7 INVX4_3
*8 OAI21X1_11
*9 OAI21X1_10
*10 OAI21X1_9
*11 MUX2X1_6
*12 MUX2X1_7
*13 OAI21X1_134
*14 NAND2X1_177
*15 OAI21X1_235
*16 MUX2X1_11
*17 OAI21X1_7
*18 OAI21X1_5
*19 clk_bF_buf12
*20 CLKBUF1_1
*21 DFFPOSX1_132
*22 DFFPOSX1_80
*23 DFFPOSX1_81
*24 DFFPOSX1_82
*25 DFFPOSX1_79
*26 DFFPOSX1_77
*27 DFFPOSX1_76
*28 DFFPOSX1_78
*29 DFFPOSX1_135
*30 DFFPOSX1_133
*31 DFFPOSX1_75
*32 DFFPOSX1_136
*33 DFFPOSX1_134
*34 DFFPOSX1_129
*35 DFFPOSX1_131
*36 clk_bF_buf11
*37 CLKBUF1_2
*38 DFFPOSX1_44
*39 DFFPOSX1_48
*40 DFFPOSX1_157
*41 DFFSR_5
*42 DFFSR_6
*43 DFFSR_4
*44 DFFSR_17
*45 DFFSR_16
*46 DFFSR_9
*47 DFFSR_14
*48 DFFSR_13
*49 DFFSR_15
*50 DFFSR_10
*51 DFFSR_11
*52 DFFSR_12
*53 clk_bF_buf10
*54 CLKBUF1_3
*55 DFFPOSX1_25
*56 DFFPOSX1_23
*57 DFFPOSX1_29
*58 DFFPOSX1_30
*59 DFFPOSX1_24
*60 DFFPOSX1_140
*61 DFFPOSX1_142
*62 DFFPOSX1_139
*63 DFFPOSX1_138
*64 DFFPOSX1_141
*65 DFFPOSX1_27
*66 DFFPOSX1_31
*67 DFFPOSX1_19
*68 DFFPOSX1_32
*69 DFFPOSX1_34
*70 clk_bF_buf9
*71 CLKBUF1_4
*72 DFFPOSX1_49
*73 DFFPOSX1_155
*74 DFFPOSX1_45
*75 DFFPOSX1_156
*76 DFFSR_2
*77 DFFPOSX1_153
*78 DFFPOSX1_46
*79 DFFPOSX1_160
*80 DFFPOSX1_99
*81 DFFPOSX1_100
*82 DFFSR_1
*83 DFFPOSX1_106
*84 DFFPOSX1_43
*85 DFFPOSX1_51
*86 DFFPOSX1_36
*87 clk_bF_buf8
*88 CLKBUF1_5
*89 DFFPOSX1_90
*90 DFFPOSX1_83
*91 DFFPOSX1_89
*92 DFFPOSX1_137
*93 DFFPOSX1_144
*94 DFFPOSX1_87
*95 DFFPOSX1_88
*96 DFFPOSX1_85
*97 DFFPOSX1_86
*98 DFFPOSX1_84
*99 DFFPOSX1_145
*100 DFFPOSX1_148
*101 DFFPOSX1_146
*102 DFFPOSX1_147
*103 DFFPOSX1_143
*104 clk_bF_buf7
*105 CLKBUF1_6
*106 DFFPOSX1_128
*107 DFFPOSX1_71
*108 DFFPOSX1_127
*109 DFFPOSX1_122
*110 DFFPOSX1_126
*111 DFFPOSX1_72
*112 DFFPOSX1_73
*113 DFFPOSX1_123
*114 DFFPOSX1_74
*115 DFFPOSX1_124
*116 DFFPOSX1_125
*117 DFFPOSX1_69
*118 DFFPOSX1_130
*119 DFFPOSX1_67
*120 DFFPOSX1_68
*121 clk_bF_buf6
*122 CLKBUF1_7
*123 DFFPOSX1_91
*124 DFFPOSX1_97
*125 DFFPOSX1_93
*126 DFFPOSX1_98
*127 DFFPOSX1_92
*128 DFFPOSX1_102
*129 DFFPOSX1_39
*130 DFFPOSX1_101
*131 DFFPOSX1_38
*132 DFFPOSX1_105
*133 DFFPOSX1_41
*134 DFFPOSX1_96
*135 DFFPOSX1_95
*136 DFFPOSX1_104
*137 DFFPOSX1_94
*138 clk_bF_buf5
*139 CLKBUF1_8
*140 DFFPOSX1_113
*141 DFFPOSX1_109
*142 DFFSR_8
*143 DFFPOSX1_107
*144 DFFSR_7
*145 DFFSR_3
*146 DFFPOSX1_168
*147 DFFPOSX1_162
*148 DFFPOSX1_161
*149 DFFPOSX1_169
*150 DFFPOSX1_170
*151 DFFPOSX1_171
*152 DFFPOSX1_3
*153 DFFPOSX1_154
*154 DFFPOSX1_158
*155 clk_bF_buf4
*156 CLKBUF1_9
*157 DFFPOSX1_63
*158 DFFPOSX1_114
*159 DFFPOSX1_62
*160 DFFPOSX1_65
*161 DFFPOSX1_66
*162 DFFPOSX1_64
*163 DFFPOSX1_116
*164 DFFPOSX1_59
*165 DFFPOSX1_60
*166 DFFPOSX1_117
*167 DFFPOSX1_54
*168 DFFPOSX1_56
*169 DFFPOSX1_55
*170 DFFPOSX1_121
*171 DFFPOSX1_115
*172 z[4][7]
*173 DFFPOSX1_18
*174 OAI21X1_62
*175 OAI21X1_63
*176 AOI21X1_63
*177 AOI22X1_31
*178 OAI21X1_25
*179 NAND2X1_20
*180 OAI21X1_22
*181 OAI21X1_24
*182 AOI21X1_2
*183 OAI21X1_26
*184 MUX2X1_12
*185 OAI21X1_84
*186 OAI21X1_280
*187 INVX8_2
*188 MUX2X1_1
*189 x[5][7]
*190 DFFPOSX1_82
*191 NOR2X1_62
*192 OAI21X1_127
*193 INVX4_6
*194 NAND2X1_94
*195 OAI21X1_123
*196 XNOR2X1_39
*197 XOR2X1_12
*198 XOR2X1_11
*199 OAI21X1_118
*200 NOR2X1_59
*201 OAI21X1_128
*202 AOI22X1_13
*203 AOI22X1_14
*204 NOR2X1_67
*205 XNOR2X1_44
*206 clk_bF_buf3
*207 CLKBUF1_10
*208 DFFPOSX1_152
*209 DFFPOSX1_151
*210 DFFPOSX1_33
*211 DFFPOSX1_35
*212 DFFPOSX1_149
*213 DFFPOSX1_150
*214 DFFPOSX1_11
*215 DFFPOSX1_47
*216 DFFPOSX1_37
*217 DFFPOSX1_159
*218 DFFPOSX1_50
*219 DFFPOSX1_103
*220 DFFPOSX1_42
*221 DFFPOSX1_40
*222 clk_bF_buf2
*223 CLKBUF1_11
*224 DFFPOSX1_13
*225 DFFPOSX1_6
*226 DFFPOSX1_10
*227 DFFPOSX1_20
*228 DFFPOSX1_8
*229 DFFPOSX1_58
*230 DFFPOSX1_28
*231 DFFPOSX1_12
*232 DFFPOSX1_5
*233 DFFPOSX1_4
*234 DFFPOSX1_1
*235 DFFPOSX1_7
*236 DFFPOSX1_2
*237 DFFPOSX1_174
*238 clk_bF_buf1
*239 CLKBUF1_12
*240 DFFPOSX1_108
*241 DFFPOSX1_163
*242 DFFPOSX1_165
*243 DFFPOSX1_166
*244 DFFPOSX1_164
*245 DFFPOSX1_111
*246 DFFPOSX1_110
*247 DFFPOSX1_57
*248 DFFPOSX1_112
*249 DFFPOSX1_172
*250 DFFPOSX1_173
*251 DFFPOSX1_167
*252 DFFPOSX1_52
*253 DFFPOSX1_53
*254 clk_bF_buf0
*255 CLKBUF1_13
*256 DFFPOSX1_120
*257 DFFPOSX1_9
*258 DFFPOSX1_14
*259 DFFPOSX1_21
*260 DFFPOSX1_22
*261 DFFPOSX1_26
*262 DFFPOSX1_17
*263 DFFPOSX1_15
*264 DFFPOSX1_16
*265 DFFPOSX1_18
*266 DFFPOSX1_70
*267 DFFPOSX1_119
*268 DFFPOSX1_61
*269 DFFPOSX1_118
*270 clk
*271 CLKBUF1_13
*272 CLKBUF1_11
*273 CLKBUF1_1
*274 CLKBUF1_3
*275 CLKBUF1_5
*276 CLKBUF1_6
*277 CLKBUF1_8
*278 CLKBUF1_12
*279 CLKBUF1_2
*280 CLKBUF1_4
*281 CLKBUF1_10
*282 CLKBUF1_7
*283 CLKBUF1_9
*284 _656_
*285 INVX4_4
*286 NAND2X1_152
*287 AOI22X1_22
*288 NOR2X1_111
*289 OAI21X1_205
*290 OAI21X1_43
*291 OAI21X1_36
*292 OAI21X1_38
*293 NAND3X1_1
*294 NOR2X1_25
*295 OAI21X1_41
*296 OAI21X1_40
*297 AOI21X1_3
*298 OAI21X1_201
*299 y[4][7]
*300 DFFPOSX1_128
*301 AOI22X1_32
*302 OAI21X1_278
*303 NAND2X1_205
*304 XNOR2X1_95
*305 XOR2X1_30
*306 NOR2X1_144
*307 XNOR2X1_94
*308 XOR2X1_31
*309 INVX2_27
*310 OAI21X1_276
*311 XNOR2X1_32
*312 OAI21X1_280
*313 NOR2X1_147
*314 _869_
*315 INVX4_5
*316 OAI21X1_105
*317 NOR2X1_52
*318 OAI21X1_109
*319 AOI22X1_7
*320 AOI22X1_8
*321 OAI21X1_107
*322 NOR2X1_49
*323 NAND2X1_82
*324 NOR2X1_46
*325 OAI21X1_96
*326 NAND2X1_76
*327 OAI21X1_95
*328 OAI21X1_94
*329 _960_
*330 INVX4_6
*331 NAND2X1_93
*332 NOR2X1_63
*333 NOR2X1_60
*334 OAI21X1_132
*335 OAI21X1_130
*336 NOR2X1_66
*337 OAI21X1_134
*338 AOI22X1_12
*339 NAND2X1_99
*340 AOI22X1_11
*341 OAI21X1_121
*342 OAI21X1_120
*343 OAI21X1_119
*344 _126_
*345 INVX4_8
*346 NOR2X1_105
*347 AOI22X1_19
*348 OAI21X1_187
*349 OAI21X1_188
*350 AOI22X1_18
*351 NOR2X1_103
*352 NOR2X1_100
*353 NAND2X1_137
*354 NAND2X1_138
*355 OAI22X1_9
*356 NOR2X1_97
*357 OAI21X1_182
*358 NAND2X1_142
*359 x[4][7]
*360 DFFPOSX1_74
*361 AND2X2_3
*362 NOR2X1_32
*363 NOR2X1_35
*364 OAI21X1_81
*365 INVX2_5
*366 XNOR2X1_29
*367 NAND2X1_59
*368 NOR2X1_36
*369 OAI21X1_77
*370 AOI22X1_6
*371 NOR2X1_38
*372 XNOR2X1_32
*373 y[2][7]
*374 DFFPOSX1_111
*375 OAI21X1_297
*376 NOR2X1_95
*377 INVX4_7
*378 OAI21X1_298
*379 XOR2X1_33
*380 XOR2X1_15
*381 BUFX2_59
*382 OAI21X1_172
*383 OAI21X1_170
*384 AOI21X1_70
*385 NAND2X1_221
*386 NAND2X1_212
*387 z[6][7]
*388 DFFPOSX1_34
*389 OAI21X1_1
*390 MUX2X1_4
*391 OAI21X1_109
*392 OAI21X1_198
*393 OAI21X1_176
*394 NAND2X1_136
*395 INVX4_2
*396 MUX2X1_2
*397 OAI21X1_88
*398 OAI21X1_87
*399 MUX2X1_3
*400 z[3][7]
*401 DFFPOSX1_10
*402 OAI21X1_33
*403 OAI21X1_30
*404 OAI21X1_32
*405 OAI21X1_161
*406 MUX2X1_8
*407 AOI21X1_46
*408 OAI21X1_230
*409 INVX8_3
*410 OAI21X1_140
*411 OAI21X1_139
*412 MUX2X1_10
*413 x[7][7]
*414 DFFPOSX1_98
*415 XNOR2X1_15
*416 NAND2X1_27
*417 XNOR2X1_17
*418 OAI21X1_37
*419 NAND2X1_35
*420 NAND2X1_28
*421 NAND2X1_32
*422 NOR2X1_17
*423 NAND2X1_31
*424 XOR2X1_1
*425 INVX2_2
*426 x[3][4]
*427 DFFPOSX1_63
*428 AND2X2_6
*429 NOR2X1_75
*430 NAND2X1_105
*431 OAI21X1_142
*432 OR2X2_9
*433 INVX1_110
*434 AOI21X1_46
*435 OAI21X1_228
*436 XNOR2X1_77
*437 OAI21X1_222
*438 NOR2X1_77
*439 _7_[5]
*440 INVX4_1
*441 DFFPOSX1_107
*442 OAI21X1_52
*443 BUFX2_42
*444 OAI21X1_56
*445 NAND2X1_43
*446 NAND2X1_44
*447 OAI21X1_58
*448 OAI21X1_60
*449 OAI21X1_59
*450 AOI22X1_3
*451 z[2][7]
*452 DFFPOSX1_2
*453 AOI21X1_36
*454 INVX8_1
*455 NAND2X1_128
*456 OAI21X1_172
*457 NOR2X1_12
*458 OAI21X1_20
*459 OAI21X1_19
*460 NAND2X1_17
*461 OAI21X1_18
*462 OAI21X1_298
*463 x[4][5]
*464 DFFPOSX1_72
*465 NOR2X1_33
*466 OAI21X1_65
*467 NAND2X1_49
*468 AND2X2_2
*469 INVX1_57
*470 NOR2X1_31
*471 XOR2X1_31
*472 OAI21X1_274
*473 OAI21X1_278
*474 OR2X2_5
*475 y[2][2]
*476 DFFPOSX1_109
*477 OAI21X1_285
*478 NAND2X1_127
*479 OAI21X1_283
*480 OAI21X1_165
*481 OAI22X1_8
*482 XOR2X1_32
*483 BUFX2_57
*484 INVX1_115
*485 NOR2X1_87
*486 OAI21X1_284
*487 z[1][7]
*488 DFFPOSX1_168
*489 NAND2X1_38
*490 OAI22X1_7
*491 INVX2_3
*492 OAI21X1_137
*493 OAI21X1_299
*494 NOR2X1_71
*495 OAI21X1_49
*496 AOI21X1_6
*497 AOI22X1_2
*498 x[5][6]
*499 DFFPOSX1_81
*500 INVX1_159
*501 NOR2X1_135
*502 OAI21X1_255
*503 OAI21X1_115
*504 NOR2X1_58
*505 NAND2X1_88
*506 OR2X2_8
*507 NOR2X1_57
*508 AND2X2_5
*509 y[3][5]
*510 DFFPOSX1_118
*511 NOR2X1_118
*512 NAND2X1_169
*513 OAI21X1_215
*514 NOR2X1_121
*515 INVX1_107
*516 XNOR2X1_50
*517 OAI21X1_159
*518 OAI21X1_154
*519 AND2X2_10
*520 y[3][7]
*521 DFFPOSX1_120
*522 XNOR2X1_77
*523 OAI21X1_228
*524 OAI21X1_226
*525 INVX2_25
*526 NOR2X1_125
*527 XOR2X1_24
*528 OAI21X1_230
*529 AOI22X1_25
*530 XNOR2X1_53
*531 _105_
*532 INVX4_7
*533 OAI21X1_171
*534 AOI21X1_36
*535 NOR2X1_96
*536 OAI21X1_169
*537 NAND2X1_220
*538 NOR2X1_154
*539 NOR2X1_152
*540 OAI21X1_288
*541 NAND2X1_211
*542 rst
*543 NAND2X1_229
*544 NAND2X1_232
*545 NAND2X1_228
*546 NAND2X1_230
*547 INVX8_4
*548 NAND2X1_227
*549 NAND2X1_226
*550 NAND2X1_231
*551 NAND2X1_233
*552 z[7][7]
*553 DFFPOSX1_35
*554 OAI22X1_5
*555 OAI21X1_39
*556 OAI21X1_44
*557 NAND2X1_27
*558 OAI22X1_4
*559 NAND3X1_14
*560 OAI21X1_202
*561 INVX4_4
*562 y[7][7]
*563 DFFPOSX1_152
*564 INVX2_21
*565 NOR2X1_112
*566 NAND2X1_152
*567 NAND2X1_150
*568 XNOR2X1_17
*569 NAND2X1_154
*570 NAND2X1_158
*571 XOR2X1_21
*572 x[4][4]
*573 DFFPOSX1_71
*574 NAND2X1_51
*575 INVX1_44
*576 NAND2X1_47
*577 XNOR2X1_94
*578 AOI21X1_63
*579 NAND2X1_205
*580 OAI21X1_274
*581 OAI21X1_278
*582 y[4][5]
*583 DFFPOSX1_126
*584 OAI21X1_262
*585 NOR2X1_143
*586 XNOR2X1_91
*587 XOR2X1_29
*588 INVX1_54
*589 OAI21X1_82
*590 OAI21X1_77
*591 XNOR2X1_29
*592 y[1][7]
*593 DFFPOSX1_108
*594 OAI21X1_137
*595 NOR2X1_72
*596 BUFX2_53
*597 BUFX2_51
*598 INVX2_11
*599 BUFX2_55
*600 BUFX2_52
*601 BUFX2_18
*602 x[3][5]
*603 DFFPOSX1_64
*604 NAND2X1_110
*605 NOR2X1_78
*606 INVX1_101
*607 AOI21X1_25
*608 OAI21X1_228
*609 OAI21X1_222
*610 XOR2X1_24
*611 XNOR2X1_46
*612 x[3][7]
*613 DFFPOSX1_66
*614 NAND2X1_115
*615 OAI21X1_154
*616 AOI22X1_17
*617 XNOR2X1_53
*618 XNOR2X1_50
*619 INVX2_12
*620 NOR2X1_82
*621 NOR2X1_80
*622 x[2][0]
*623 DFFPOSX1_52
*624 OAI21X1_284
*625 OAI21X1_285
*626 OAI21X1_165
*627 NAND2X1_125
*628 BUFX2_58
*629 OAI22X1_8
*630 XOR2X1_32
*631 INVX1_117
*632 _349_
*633 INVX2_26
*634 NOR2X1_136
*635 AOI22X1_28
*636 NOR2X1_132
*637 OAI21X1_246
*638 OAI21X1_241
*639 NAND2X1_179
*640 AOI22X1_29
*641 NAND2X1_183
*642 x[4][6]
*643 DFFPOSX1_73
*644 XNOR2X1_25
*645 AOI21X1_10
*646 NOR2X1_34
*647 INVX2_4
*648 OAI21X1_280
*649 NOR2X1_147
*650 NAND2X1_54
*651 _784_
*652 INVX2_5
*653 AOI22X1_4
*654 OAI21X1_82
*655 NAND2X1_58
*656 AOI22X1_5
*657 NOR2X1_37
*658 OAI21X1_84
*659 OAI21X1_78
*660 y[5][5]
*661 DFFPOSX1_134
*662 NAND2X1_176
*663 INVX2_9
*664 OAI21X1_128
*665 OAI21X1_127
*666 NOR2X1_62
*667 OAI21X1_132
*668 XOR2X1_25
*669 x[3][6]
*670 DFFPOSX1_65
*671 AND2X2_7
*672 OAI21X1_158
*673 INVX1_103
*674 OAI21X1_230
*675 NOR2X1_125
*676 NOR2X1_76
*677 NOR2X1_79
*678 y[3][4]
*679 DFFPOSX1_117
*680 XOR2X1_23
*681 INVX2_13
*682 OAI21X1_159
*683 OAI21X1_154
*684 OAI21X1_210
*685 NAND2X1_115
*686 XNOR2X1_74
*687 _644__bF_buf3
*688 BUFX4_1
*689 OAI21X1_155
*690 OAI21X1_211
*691 OAI21X1_35
*692 OAI22X1_3
*693 OAI21X1_29
*694 NAND2X1_23
*695 _644__bF_buf2
*696 BUFX4_2
*697 OAI21X1_151
*698 OAI21X1_213
*699 OAI21X1_207
*700 OAI21X1_208
*701 NAND2X1_165
*702 OAI21X1_214
*703 _644__bF_buf1
*704 BUFX4_3
*705 NAND2X1_117
*706 OAI21X1_150
*707 OAI21X1_218
*708 NAND2X1_171
*709 NAND3X1_9
*710 OAI21X1_221
*711 _599__bF_buf3
*712 BUFX4_8
*713 OAI21X1_286
*714 NAND2X1_210
*715 OAI21X1_297
*716 NAND2X1_127
*717 NAND2X1_129
*718 AOI21X1_30
*719 _599__bF_buf2
*720 BUFX4_9
*721 NAND2X1_224
*722 MUX2X1_13
*723 OAI21X1_287
*724 OAI21X1_294
*725 NAND2X1_219
*726 OAI21X1_290
*727 _599__bF_buf1
*728 BUFX4_10
*729 OAI21X1_16
*730 OAI22X1_2
*731 NAND2X1_14
*732 OAI21X1_15
*733 OAI22X1_1
*734 NOR2X1_9
*735 x[6][7_bF_buf3]
*736 BUFX4_12
*737 OR2X2_7
*738 NAND2X1_77
*739 AND2X2_4
*740 NOR2X1_44
*741 AOI22X1_9
*742 AOI22X1_10
*743 y[7][0]
*744 DFFPOSX1_145
*745 OR2X2_3
*746 AOI21X1_3
*747 OAI21X1_36
*748 NAND2X1_26
*749 XOR2X1_1
*750 OAI21X1_37
*751 _657_
*752 INVX2_2
*753 OAI21X1_43
*754 OAI21X1_44
*755 AOI21X1_3
*756 NOR2X1_18
*757 AOI22X1_1
*758 NOR2X1_23
*759 _704_
*760 INVX2_3
*761 XNOR2X1_45
*762 OAI22X1_6
*763 OAI21X1_47
*764 NAND2X1_36
*765 NAND3X1_3
*766 OAI21X1_45
*767 y[4][4]
*768 DFFPOSX1_125
*769 OAI21X1_82
*770 NAND2X1_59
*771 OAI21X1_77
*772 INVX2_6
*773 NAND2X1_194
*774 NAND2X1_196
*775 y[4][6]
*776 DFFPOSX1_127
*777 NOR2X1_140
*778 NAND2X1_198
*779 AND2X2_12
*780 INVX1_52
*781 OAI21X1_84
*782 NOR2X1_37
*783 y[6][2]
*784 DFFPOSX1_139
*785 OAI21X1_98
*786 OAI21X1_96
*787 XNOR2X1_33
*788 INVX1_65
*789 OAI21X1_94
*790 XOR2X1_8
*791 x[5][5]
*792 DFFPOSX1_80
*793 NAND2X1_90
*794 NAND2X1_86
*795 INVX1_78
*796 OAI21X1_246
*797 XOR2X1_28
*798 OAI21X1_249
*799 y[5][2]
*800 DFFPOSX1_131
*801 XOR2X1_12
*802 OAI21X1_121
*803 INVX1_82
*804 OAI21X1_119
*805 XNOR2X1_39
*806 OAI21X1_123
*807 _1069_
*808 INVX2_12
*809 AOI22X1_16
*810 OAI21X1_159
*811 NAND2X1_114
*812 OAI21X1_161
*813 OAI21X1_155
*814 NOR2X1_81
*815 _1070_
*816 INVX2_13
*817 OAI22X1_10
*818 NOR2X1_120
*819 NAND2X1_170
*820 NOR2X1_80
*821 NAND2X1_114
*822 NAND2X1_119
*823 x[2][6]
*824 DFFPOSX1_57
*825 INVX1_118
*826 NOR2X1_93
*827 OAI21X1_298
*828 XOR2X1_33
*829 AOI21X1_70
*830 NOR2X1_91
*831 x[2][7]
*832 DFFPOSX1_58
*833 OAI21X1_170
*834 OAI21X1_171
*835 XOR2X1_15
*836 NAND2X1_131
*837 INVX2_19
*838 NOR2X1_96
*839 _644__bF_buf0
*840 BUFX4_4
*841 OAI21X1_226
*842 OAI21X1_147
*843 NAND2X1_108
*844 OAI21X1_144
*845 NAND2X1_113
*846 _626__bF_buf3
*847 BUFX4_5
*848 NAND2X1_202
*849 OAI21X1_266
*850 OAI21X1_269
*851 NAND2X1_203
*852 OAI21X1_21
*853 _626__bF_buf2
*854 BUFX4_6
*855 OAI21X1_276
*856 NAND2X1_52
*857 OAI21X1_67
*858 OAI21X1_70
*859 NAND2X1_57
*860 _626__bF_buf1
*861 BUFX4_7
*862 OAI21X1_78
*863 OAI21X1_258
*864 OAI21X1_259
*865 OAI21X1_263
*866 NAND2X1_197
*867 _599__bF_buf0
*868 BUFX4_11
*869 MUX2X1_9
*870 OAI21X1_167
*871 OAI21X1_168
*872 NAND2X1_16
*873 NAND2X1_130
*874 x[6][7_bF_buf2]
*875 BUFX4_13
*876 OAI21X1_93
*877 NAND2X1_71
*878 OAI21X1_90
*879 OAI21X1_98
*880 OAI21X1_102
*881 x[6][7_bF_buf1]
*882 BUFX4_14
*883 XNOR2X1_33
*884 XOR2X1_8
*885 XOR2X1_7
*886 OAI21X1_103
*887 NOR2X1_48
*888 x[6][7_bF_buf0]
*889 BUFX4_15
*890 NOR2X1_45
*891 NOR2X1_43
*892 INVX4_5
*893 XNOR2X1_38
*894 NOR2X1_53
*895 y[6][7_bF_buf3]
*896 BUFX4_16
*897 XNOR2X1_65
*898 OAI21X1_198
*899 XNOR2X1_38
*900 OAI21X1_180
*901 NAND2X1_139
*902 y[6][7_bF_buf2]
*903 BUFX4_17
*904 XNOR2X1_61
*905 NAND2X1_141
*906 AOI22X1_20
*907 AOI22X1_21
*908 XOR2X1_18
*909 _38__bF_buf3
*910 BUFX4_20
*911 DFFSR_9
*912 DFFSR_14
*913 DFFSR_13
*914 DFFSR_12
*915 OR2X2_20
*916 _563__bF_buf3
*917 BUFX2_2
*918 OAI21X1_195
*919 NAND2X1_146
*920 OAI21X1_184
*921 OAI21X1_186
*922 OAI21X1_185
*923 y[5][7_bF_buf3]
*924 BUFX4_24
*925 XNOR2X1_44
*926 XNOR2X1_85
*927 NAND2X1_182
*928 NOR2X1_135
*929 AOI22X1_30
*930 _577__bF_buf3
*931 BUFX4_27
*932 OAI21X1_117
*933 NAND2X1_91
*934 OAI21X1_125
*935 OAI21X1_253
*936 NAND2X1_97
*937 _577__bF_buf2
*938 BUFX2_7
*939 OAI21X1_130
*940 OAI21X1_237
*941 OAI21X1_238
*942 OAI21X1_233
*943 OAI21X1_234
*944 z[0][3]
*945 DFFSR_4
*946 OAI21X1_57
*947 NOR2X1_30
*948 NAND2X1_42
*949 AOI21X1_7
*950 XNOR2X1_21
*951 y[4][1]
*952 DFFPOSX1_122
*953 OR2X2_5
*954 NAND2X1_49
*955 AND2X2_2
*956 NOR2X1_31
*957 INVX1_47
*958 _769_
*959 NOR2X1_32
*960 INVX1_56
*961 OAI21X1_80
*962 OR2X2_6
*963 OAI21X1_71
*964 NOR2X1_41
*965 _770_
*966 AND2X2_3
*967 OR2X2_6
*968 OAI21X1_71
*969 AOI21X1_10
*970 NOR2X1_41
*971 OAI21X1_80
*972 _785_
*973 INVX2_6
*974 NAND2X1_58
*975 NOR2X1_36
*976 NAND2X1_63
*977 NAND2X1_193
*978 OAI21X1_258
*979 _788_
*980 NAND2X1_60
*981 NAND2X1_64
*982 NOR2X1_40
*983 INVX1_51
*984 AOI21X1_11
*985 XNOR2X1_28
*986 x[6][6]
*987 DFFPOSX1_89
*988 NAND2X1_73
*989 NAND2X1_69
*990 INVX2_7
*991 OAI21X1_198
*992 NOR2X1_104
*993 y[6][1]
*994 DFFPOSX1_138
*995 NOR2X1_43
*996 NAND2X1_71
*997 INVX1_64
*998 AND2X2_4
*999 OR2X2_7
*1000 y[6][3]
*1001 DFFPOSX1_140
*1002 XOR2X1_7
*1003 OAI21X1_98
*1004 OAI21X1_96
*1005 NAND2X1_77
*1006 INVX1_68
*1007 y[6][4]
*1008 DFFPOSX1_141
*1009 OAI21X1_102
*1010 INVX1_66
*1011 NOR2X1_45
*1012 NAND2X1_82
*1013 OAI21X1_107
*1014 _882_
*1015 NOR2X1_47
*1016 AOI21X1_16
*1017 OAI21X1_101
*1018 INVX1_67
*1019 NOR2X1_55
*1020 OAI21X1_103
*1021 y[6][5]
*1022 DFFPOSX1_142
*1023 OAI21X1_102
*1024 OAI21X1_103
*1025 OAI21X1_107
*1026 INVX1_70
*1027 NOR2X1_48
*1028 y[6][6]
*1029 DFFPOSX1_143
*1030 NAND2X1_135
*1031 INVX2_8
*1032 XOR2X1_17
*1033 OAI21X1_109
*1034 NOR2X1_52
*1035 y[5][1]
*1036 DFFPOSX1_130
*1037 NAND2X1_88
*1038 NOR2X1_57
*1039 INVX1_81
*1040 AND2X2_5
*1041 OR2X2_8
*1042 y[5][3]
*1043 DFFPOSX1_132
*1044 NAND2X1_94
*1045 INVX1_85
*1046 OAI21X1_123
*1047 OAI21X1_121
*1048 XOR2X1_11
*1049 y[5][4]
*1050 DFFPOSX1_133
*1051 INVX1_83
*1052 OAI21X1_132
*1053 OAI21X1_127
*1054 NOR2X1_59
*1055 NAND2X1_99
*1056 _973_
*1057 NOR2X1_61
*1058 OAI21X1_128
*1059 AOI21X1_20
*1060 OAI21X1_126
*1061 NOR2X1_69
*1062 INVX1_84
*1063 y[5][6]
*1064 DFFPOSX1_135
*1065 XNOR2X1_87
*1066 XOR2X1_26
*1067 INVX2_10
*1068 OAI21X1_134
*1069 NOR2X1_66
*1070 _999_
*1071 INVX2_10
*1072 NOR2X1_67
*1073 OAI21X1_130
*1074 NAND2X1_178
*1075 NOR2X1_129
*1076 OAI22X1_11
*1077 _0_[0]
*1078 INVX2_11
*1079 NOR2X1_73
*1080 OAI21X1_138
*1081 DFFPOSX1_52
*1082 BUFX2_46
*1083 NOR2X1_71
*1084 x[3][3]
*1085 DFFPOSX1_62
*1086 NAND2X1_107
*1087 NAND2X1_103
*1088 INVX1_97
*1089 NAND2X1_167
*1090 XNOR2X1_78
*1091 y[3][1]
*1092 DFFPOSX1_114
*1093 AND2X2_6
*1094 NOR2X1_75
*1095 NAND2X1_105
*1096 OR2X2_9
*1097 INVX1_100
*1098 y[3][3]
*1099 DFFPOSX1_116
*1100 INVX2_14
*1101 AND2X2_7
*1102 NOR2X1_76
*1103 XOR2X1_22
*1104 NAND2X1_164
*1105 _1054_
*1106 NOR2X1_76
*1107 INVX1_109
*1108 OAI21X1_148
*1109 OAI21X1_157
*1110 NOR2X1_85
*1111 OR2X2_10
*1112 _1055_
*1113 AND2X2_7
*1114 OAI21X1_157
*1115 NOR2X1_85
*1116 OR2X2_10
*1117 AOI21X1_25
*1118 OAI21X1_148
*1119 _1073_
*1120 NAND2X1_116
*1121 AOI21X1_26
*1122 INVX1_105
*1123 XNOR2X1_49
*1124 NOR2X1_84
*1125 NAND2X1_120
*1126 _1076_
*1127 INVX2_14
*1128 NOR2X1_79
*1129 OAI22X1_10
*1130 OAI21X1_207
*1131 OAI21X1_158
*1132 AOI22X1_15
*1133 y[3][6]
*1134 DFFPOSX1_119
*1135 XNOR2X1_78
*1136 NAND2X1_166
*1137 INVX2_15
*1138 OAI21X1_161
*1139 NOR2X1_81
*1140 x[2][3]
*1141 DFFPOSX1_54
*1142 INVX2_16
*1143 NOR2X1_87
*1144 NAND2X1_211
*1145 AOI21X1_30
*1146 NOR2X1_90
*1147 _71_
*1148 INVX2_17
*1149 NAND2X1_216
*1150 NOR2X1_153
*1151 OAI21X1_293
*1152 OAI21X1_291
*1153 XNOR2X1_54
*1154 x[2][5]
*1155 DFFPOSX1_56
*1156 INVX1_116
*1157 NAND2X1_220
*1158 NAND2X1_125
*1159 OAI21X1_165
*1160 OAI21X1_164
*1161 _100_
*1162 INVX2_18
*1163 NAND2X1_215
*1164 NOR2X1_153
*1165 OAI21X1_292
*1166 OAI21X1_291
*1167 NAND2X1_131
*1168 x[6][1]
*1169 DFFPOSX1_84
*1170 XNOR2X1_65
*1171 XOR2X1_18
*1172 OAI22X1_9
*1173 NAND2X1_137
*1174 INVX1_123
*1175 x[6][2]
*1176 DFFPOSX1_85
*1177 INVX1_125
*1178 OAI21X1_182
*1179 OAI21X1_180
*1180 NAND2X1_141
*1181 XOR2X1_19
*1182 x[6][3]
*1183 DFFPOSX1_86
*1184 XNOR2X1_61
*1185 OAI21X1_180
*1186 OAI21X1_182
*1187 INVX1_124
*1188 NAND2X1_138
*1189 x[6][4]
*1190 DFFPOSX1_87
*1191 OAI21X1_192
*1192 OAI21X1_187
*1193 OR2X2_12
*1194 NOR2X1_100
*1195 INVX1_126
*1196 x[6][5]
*1197 DFFPOSX1_88
*1198 OAI21X1_192
*1199 OAI21X1_187
*1200 XNOR2X1_63
*1201 OAI21X1_188
*1202 OR2X2_12
*1203 _208_
*1204 INVX2_21
*1205 OAI21X1_205
*1206 NOR2X1_111
*1207 NAND2X1_149
*1208 NOR2X1_113
*1209 NAND2X1_153
*1210 x[3][1]
*1211 DFFPOSX1_60
*1212 XOR2X1_23
*1213 NAND2X1_170
*1214 INVX1_139
*1215 OAI22X1_10
*1216 XNOR2X1_74
*1217 _294_
*1218 INVX2_25
*1219 NOR2X1_126
*1220 NOR2X1_124
*1221 AOI21X1_46
*1222 AOI22X1_26
*1223 OAI21X1_222
*1224 x[5][1]
*1225 DFFPOSX1_76
*1226 NAND2X1_178
*1227 INVX1_153
*1228 XNOR2X1_87
*1229 OAI22X1_11
*1230 XOR2X1_26
*1231 x[5][2]
*1232 DFFPOSX1_77
*1233 NAND2X1_182
*1234 INVX1_155
*1235 OAI21X1_241
*1236 OAI21X1_239
*1237 XOR2X1_27
*1238 x[5][3]
*1239 DFFPOSX1_78
*1240 XNOR2X1_85
*1241 OAI21X1_241
*1242 OAI21X1_239
*1243 NAND2X1_179
*1244 INVX1_154
*1245 x[5][4]
*1246 DFFPOSX1_79
*1247 OAI21X1_249
*1248 NAND2X1_189
*1249 OAI21X1_246
*1250 INVX1_156
*1251 NOR2X1_132
*1252 x[4][2]
*1253 DFFPOSX1_69
*1254 AND2X2_12
*1255 INVX1_171
*1256 NAND2X1_201
*1257 NAND2X1_198
*1258 NOR2X1_140
*1259 _441_
*1260 XOR2X1_30
*1261 NAND2X1_206
*1262 AOI21X1_64
*1263 AOI21X1_59
*1264 OAI21X1_267
*1265 XNOR2X1_93
*1266 _454_
*1267 XNOR2X1_94
*1268 NAND2X1_208
*1269 NOR2X1_150
*1270 OAI21X1_272
*1271 NAND2X1_204
*1272 XNOR2X1_96
*1273 _464_
*1274 INVX2_27
*1275 NOR2X1_148
*1276 OAI21X1_274
*1277 AOI22X1_33
*1278 AOI21X1_63
*1279 NOR2X1_146
*1280 _535_
*1281 NAND2X1_222
*1282 OAI21X1_296
*1283 NAND2X1_225
*1284 NOR2X1_155
*1285 XNOR2X1_103
*1286 AOI21X1_68
*1287 _7_[7]
*1288 BUFX2_16
*1289 BUFX2_43
*1290 BUFX2_40
*1291 BUFX2_41
*1292 BUFX2_39
*1293 DFFPOSX1_108
*1294 _644_
*1295 INVX8_3
*1296 BUFX4_4
*1297 BUFX4_3
*1298 BUFX4_2
*1299 BUFX4_1
*1300 _626_
*1301 INVX8_2
*1302 BUFX4_5
*1303 BUFX4_6
*1304 BUFX4_7
*1305 BUFX2_1
*1306 _626__bF_buf0
*1307 BUFX2_1
*1308 OAI21X1_73
*1309 NAND2X1_61
*1310 NAND3X1_4
*1311 OAI21X1_74
*1312 _599_
*1313 INVX8_1
*1314 BUFX4_8
*1315 BUFX4_9
*1316 BUFX4_11
*1317 BUFX4_10
*1318 x[6][7]
*1319 DFFPOSX1_90
*1320 BUFX4_12
*1321 BUFX4_14
*1322 BUFX4_15
*1323 BUFX4_13
*1324 y[6][7]
*1325 DFFPOSX1_144
*1326 BUFX4_16
*1327 BUFX4_19
*1328 BUFX4_17
*1329 BUFX4_18
*1330 y[6][7_bF_buf1]
*1331 BUFX4_18
*1332 XOR2X1_19
*1333 NOR2X1_98
*1334 OAI21X1_192
*1335 XNOR2X1_63
*1336 y[6][7_bF_buf0]
*1337 BUFX4_19
*1338 NOR2X1_104
*1339 OAI21X1_196
*1340 NOR2X1_99
*1341 INVX4_8
*1342 _38_
*1343 INVX8_4
*1344 BUFX4_20
*1345 BUFX4_21
*1346 BUFX4_23
*1347 BUFX4_22
*1348 _38__bF_buf2
*1349 BUFX4_21
*1350 OR2X2_17
*1351 OR2X2_21
*1352 OR2X2_18
*1353 OR2X2_22
*1354 _38__bF_buf1
*1355 BUFX4_22
*1356 DFFSR_15
*1357 DFFSR_16
*1358 OR2X2_16
*1359 OR2X2_15
*1360 _38__bF_buf0
*1361 BUFX4_23
*1362 DFFSR_10
*1363 OR2X2_19
*1364 DFFSR_11
*1365 DFFSR_17
*1366 _563_
*1367 INVX4_2
*1368 BUFX2_5
*1369 BUFX2_2
*1370 BUFX2_3
*1371 BUFX2_4
*1372 _563__bF_buf2
*1373 BUFX2_3
*1374 OAI21X1_105
*1375 NAND2X1_80
*1376 OAI21X1_100
*1377 OAI21X1_2
*1378 _563__bF_buf1
*1379 BUFX2_4
*1380 NAND2X1_74
*1381 OAI21X1_174
*1382 OAI21X1_92
*1383 OAI21X1_175
*1384 _563__bF_buf0
*1385 BUFX2_5
*1386 OAI21X1_190
*1387 OAI21X1_196
*1388 OAI21X1_178
*1389 OAI21X1_179
*1390 y[5][7]
*1391 DFFPOSX1_136
*1392 BUFX4_25
*1393 BUFX2_6
*1394 BUFX4_26
*1395 BUFX4_24
*1396 y[5][7_bF_buf2]
*1397 BUFX4_25
*1398 XOR2X1_27
*1399 NOR2X1_130
*1400 OAI21X1_249
*1401 XOR2X1_28
*1402 y[5][7_bF_buf1]
*1403 BUFX4_26
*1404 OAI21X1_253
*1405 INVX2_26
*1406 AOI22X1_27
*1407 NOR2X1_131
*1408 y[5][7_bF_buf0]
*1409 BUFX2_6
*1410 OAI21X1_239
*1411 OAI21X1_255
*1412 NAND2X1_189
*1413 NAND2X1_180
*1414 _577_
*1415 INVX4_3
*1416 BUFX2_9
*1417 BUFX4_27
*1418 BUFX2_7
*1419 BUFX2_8
*1420 _577__bF_buf1
*1421 BUFX2_8
*1422 OAI21X1_248
*1423 OAI21X1_252
*1424 OAI21X1_243
*1425 NAND2X1_187
*1426 _577__bF_buf0
*1427 BUFX2_9
*1428 NAND2X1_6
*1429 OAI21X1_4
*1430 NAND2X1_8
*1431 OAI21X1_8
*1432 z[0][7]
*1433 DFFSR_8
*1434 BUFX2_16
*1435 INVX4_1
*1436 OAI21X1_55
*1437 OAI21X1_53
*1438 _576_
*1439 NOR2X1_5
*1440 OAI21X1_6
*1441 OAI21X1_4
*1442 OAI21X1_7
*1443 INVX1_10
*1444 _625_
*1445 NOR2X1_13
*1446 OAI21X1_21
*1447 OAI21X1_23
*1448 NAND2X1_18
*1449 OAI21X1_24
*1450 _643_
*1451 NOR2X1_15
*1452 OAI21X1_33
*1453 OAI21X1_29
*1454 OAI21X1_31
*1455 OAI21X1_32
*1456 y[7][1]
*1457 DFFPOSX1_146
*1458 OR2X2_3
*1459 NAND2X1_26
*1460 OAI21X1_37
*1461 XNOR2X1_12
*1462 y[7][2]
*1463 DFFPOSX1_147
*1464 NAND2X1_30
*1465 NOR2X1_17
*1466 INVX1_25
*1467 NOR2X1_22
*1468 y[7][4]
*1469 DFFPOSX1_149
*1470 NAND2X1_33
*1471 NOR2X1_22
*1472 NAND2X1_32
*1473 XNOR2X1_14
*1474 _714_
*1475 NAND3X1_3
*1476 OAI21X1_47
*1477 OAI22X1_6
*1478 OAI21X1_48
*1479 OAI22X1_7
*1480 _15_[1]
*1481 INVX1_38
*1482 NAND2X1_41
*1483 NOR2X1_29
*1484 OAI21X1_53
*1485 DFFPOSX1_162
*1486 y[4][0]
*1487 DFFPOSX1_121
*1488 OAI21X1_62
*1489 NAND2X1_46
*1490 INVX1_45
*1491 NAND2X1_51
*1492 y[4][2]
*1493 DFFPOSX1_123
*1494 AOI21X1_10
*1495 INVX1_48
*1496 NAND2X1_53
*1497 XNOR2X1_25
*1498 _772_
*1499 INVX2_4
*1500 OAI21X1_276
*1501 NOR2X1_148
*1502 NAND2X1_53
*1503 OAI21X1_69
*1504 _808_
*1505 INVX1_52
*1506 OAI21X1_78
*1507 NAND2X1_199
*1508 NAND2X1_201
*1509 NOR2X1_38
*1510 _848_
*1511 INVX2_7
*1512 NAND2X1_68
*1513 OAI21X1_87
*1514 NOR2X1_105
*1515 OAI21X1_196
*1516 y[6][0]
*1517 DFFPOSX1_137
*1518 NAND2X1_73
*1519 INVX1_62
*1520 OAI21X1_87
*1521 NAND2X1_68
*1522 _908_
*1523 INVX2_8
*1524 OAI21X1_105
*1525 NOR2X1_53
*1526 OAI22X1_9
*1527 OAI21X1_174
*1528 y[5][0]
*1529 DFFPOSX1_129
*1530 NAND2X1_90
*1531 INVX1_79
*1532 OAI21X1_112
*1533 NAND2X1_85
*1534 _988_
*1535 INVX2_9
*1536 NAND2X1_100
*1537 NOR2X1_63
*1538 OAI21X1_233
*1539 OAI22X1_11
*1540 y[1][5]
*1541 DFFPOSX1_107
*1542 INVX1_94
*1543 OAI21X1_138
*1544 BUFX2_54
*1545 NOR2X1_73
*1546 _1034_
*1547 INVX1_97
*1548 NAND2X1_102
*1549 OAI21X1_139
*1550 NAND2X1_166
*1551 NOR2X1_123
*1552 y[3][0]
*1553 DFFPOSX1_113
*1554 NAND2X1_107
*1555 OAI21X1_139
*1556 NAND2X1_102
*1557 INVX1_98
*1558 y[3][2]
*1559 DFFPOSX1_115
*1560 NAND2X1_109
*1561 INVX1_102
*1562 XNOR2X1_46
*1563 AOI21X1_25
*1564 _1094_
*1565 INVX2_15
*1566 NOR2X1_82
*1567 OAI21X1_155
*1568 NAND2X1_167
*1569 NOR2X1_123
*1570 _69_
*1571 INVX2_16
*1572 NAND2X1_212
*1573 NOR2X1_88
*1574 OAI21X1_288
*1575 NOR2X1_152
*1576 x[2][4]
*1577 DFFPOSX1_55
*1578 NOR2X1_90
*1579 NAND2X1_215
*1580 OAI21X1_292
*1581 INVX2_17
*1582 _73_
*1583 INVX1_116
*1584 OAI22X1_8
*1585 NAND2X1_124
*1586 NAND2X1_221
*1587 NOR2X1_154
*1588 _84_
*1589 INVX1_119
*1590 NOR2X1_92
*1591 NOR2X1_93
*1592 NOR2X1_151
*1593 NAND2X1_214
*1594 y[2][6]
*1595 DFFPOSX1_112
*1596 NAND2X1_132
*1597 INVX2_18
*1598 NAND2X1_216
*1599 OAI21X1_293
*1600 _102_
*1601 INVX2_19
*1602 NAND2X1_132
*1603 OAI21X1_169
*1604 NOR2X1_95
*1605 OAI21X1_172
*1606 x[6][0]
*1607 DFFPOSX1_83
*1608 NAND2X1_135
*1609 OAI21X1_174
*1610 OAI22X1_9
*1611 XOR2X1_17
*1612 _162_
*1613 XNOR2X1_63
*1614 INVX1_128
*1615 AND2X2_9
*1616 XNOR2X1_64
*1617 NOR2X1_102
*1618 _172_
*1619 NOR2X1_106
*1620 INVX1_127
*1621 XNOR2X1_66
*1622 NOR2X1_109
*1623 OAI21X1_197
*1624 x[7][2]
*1625 DFFPOSX1_93
*1626 NAND2X1_154
*1627 NAND2X1_160
*1628 OR2X2_13
*1629 INVX1_136
*1630 _219_
*1631 INVX2_22
*1632 OAI21X1_206
*1633 AOI22X1_24
*1634 AOI22X1_23
*1635 NAND3X1_15
*1636 _221_
*1637 NAND2X1_157
*1638 OAI21X1_203
*1639 NOR2X1_116
*1640 OAI21X1_202
*1641 AOI22X1_23
*1642 x[3][0]
*1643 DFFPOSX1_59
*1644 NAND2X1_164
*1645 XOR2X1_22
*1646 OAI21X1_207
*1647 OAI22X1_10
*1648 x[3][2]
*1649 DFFPOSX1_61
*1650 AND2X2_10
*1651 NOR2X1_118
*1652 NAND2X1_169
*1653 INVX1_141
*1654 _256_
*1655 AND2X2_10
*1656 OAI21X1_224
*1657 NOR2X1_119
*1658 AOI21X1_47
*1659 OR2X2_14
*1660 _280_
*1661 XNOR2X1_77
*1662 INVX1_143
*1663 NAND2X1_174
*1664 NOR2X1_128
*1665 XNOR2X1_79
*1666 x[5][0]
*1667 DFFPOSX1_75
*1668 NAND2X1_176
*1669 OAI21X1_233
*1670 OAI22X1_11
*1671 XOR2X1_25
*1672 _366_
*1673 NOR2X1_133
*1674 AOI21X1_54
*1675 NAND2X1_191
*1676 OAI21X1_245
*1677 INVX1_157
*1678 _391_
*1679 NOR2X1_137
*1680 OAI21X1_254
*1681 XNOR2X1_89
*1682 INVX1_160
*1683 NOR2X1_139
*1684 x[4][0]
*1685 DFFPOSX1_67
*1686 INVX1_167
*1687 NAND2X1_196
*1688 NAND2X1_193
*1689 OAI21X1_258
*1690 x[4][1]
*1691 DFFPOSX1_68
*1692 XNOR2X1_91
*1693 INVX1_169
*1694 OAI21X1_261
*1695 XOR2X1_29
*1696 _442_
*1697 NAND2X1_198
*1698 NAND2X1_200
*1699 AOI21X1_59
*1700 OAI21X1_268
*1701 OAI21X1_264
*1702 _462_
*1703 XNOR2X1_95
*1704 AOI21X1_62
*1705 NOR2X1_145
*1706 OAI21X1_268
*1707 OAI21X1_270
*1708 _526_
*1709 NAND2X1_217
*1710 NAND2X1_225
*1711 NOR2X1_155
*1712 NAND2X1_223
*1713 XNOR2X1_102
*1714 _20_[1]
*1715 INVX1_8
*1716 OAI21X1_5
*1717 NOR2X1_6
*1718 DFFPOSX1_28
*1719 z[5][3]
*1720 DFFPOSX1_22
*1721 NOR2X1_7
*1722 XNOR2X1_1
*1723 NAND2X1_5
*1724 _583_
*1725 INVX2_1
*1726 XNOR2X1_2
*1727 NAND2X1_7
*1728 OAI21X1_9
*1729 _584_
*1730 NAND2X1_5
*1731 OAI21X1_8
*1732 OAI21X1_11
*1733 OAI21X1_9
*1734 z[5][5]
*1735 DFFPOSX1_24
*1736 NAND2X1_10
*1737 INVX1_11
*1738 XNOR2X1_3
*1739 _20_[7]
*1740 OAI21X1_12
*1741 NAND2X1_11
*1742 OAI21X1_13
*1743 DFFPOSX1_34
*1744 _17_[0]
*1745 INVX1_13
*1746 NOR2X1_8
*1747 NAND2X1_13
*1748 DFFPOSX1_3
*1749 _601_
*1750 NAND2X1_13
*1751 OR2X2_1
*1752 OAI22X1_1
*1753 OAI21X1_15
*1754 _602_
*1755 NOR2X1_8
*1756 NOR2X1_9
*1757 NAND2X1_14
*1758 NAND2X1_15
*1759 _604_
*1760 NAND2X1_14
*1761 OAI22X1_2
*1762 OAI21X1_15
*1763 OAI21X1_14
*1764 z[2][2]
*1765 DFFPOSX1_171
*1766 OR2X2_1
*1767 NAND2X1_15
*1768 INVX1_14
*1769 z[2][3]
*1770 DFFPOSX1_172
*1771 OR2X2_2
*1772 OAI21X1_17
*1773 INVX1_15
*1774 _609_
*1775 OR2X2_1
*1776 OAI22X1_2
*1777 OAI21X1_17
*1778 OR2X2_2
*1779 z[2][4]
*1780 DFFPOSX1_173
*1781 OAI21X1_17
*1782 NOR2X1_11
*1783 XNOR2X1_6
*1784 _19_[2]
*1785 INVX1_17
*1786 OAI21X1_22
*1787 NOR2X1_14
*1788 DFFPOSX1_21
*1789 z[4][4]
*1790 DFFPOSX1_15
*1791 NAND2X1_19
*1792 INVX1_19
*1793 XNOR2X1_9
*1794 _19_[7]
*1795 OAI21X1_27
*1796 OAI21X1_28
*1797 NAND2X1_21
*1798 DFFPOSX1_26
*1799 _18_[3]
*1800 INVX1_22
*1801 OAI21X1_30
*1802 NOR2X1_16
*1803 DFFPOSX1_14
*1804 z[3][5]
*1805 DFFPOSX1_8
*1806 NAND2X1_23
*1807 NAND2X1_24
*1808 XNOR2X1_11
*1809 _18_[7]
*1810 OAI22X1_3
*1811 OAI21X1_34
*1812 OAI21X1_35
*1813 DFFPOSX1_18
*1814 _661_
*1815 INVX1_25
*1816 NAND3X1_1
*1817 NOR2X1_18
*1818 NAND2X1_28
*1819 _665_
*1820 NAND2X1_26
*1821 NOR2X1_20
*1822 OAI21X1_39
*1823 INVX1_26
*1824 y[7][3]
*1825 DFFPOSX1_148
*1826 NAND2X1_30
*1827 XNOR2X1_13
*1828 NOR2X1_21
*1829 _677_
*1830 INVX1_28
*1831 NOR2X1_24
*1832 OAI21X1_42
*1833 OAI21X1_40
*1834 _678_
*1835 NOR2X1_21
*1836 NAND3X1_1
*1837 AOI21X1_4
*1838 NAND3X1_2
*1839 y[7][5]
*1840 DFFPOSX1_150
*1841 NAND2X1_33
*1842 AOI22X1_1
*1843 INVX1_29
*1844 _682_
*1845 INVX1_29
*1846 OAI21X1_42
*1847 NAND3X1_2
*1848 AOI21X1_4
*1849 y[7][6]
*1850 DFFPOSX1_151
*1851 INVX1_30
*1852 OAI21X1_44
*1853 XNOR2X1_15
*1854 _16_[0]
*1855 INVX1_32
*1856 OAI21X1_46
*1857 DFFPOSX1_169
*1858 NOR2X1_26
*1859 _703_
*1860 NOR2X1_26