* XSpice netlist created from SPICE and liberty sources by spi2xspice.py
*SPICE netlist created from BLIF module sincos by blif2BSpice
.subckt sincos a_vdd a_gnd a_clk a_rst a_theta_0_ a_theta_1_ a_theta_2_ a_theta_3_ a_theta_4_ a_theta_5_ a_theta_6_ a_theta_7_ a_sine_0_ a_sine_1_ a_sine_2_ a_sine_3_ a_sine_4_ a_sine_5_ a_sine_6_ a_sine_7_ a_cosine_0_ a_cosine_1_ a_cosine_2_ a_cosine_3_ a_cosine_4_ a_cosine_5_ a_cosine_6_ a_cosine_7_ a_done
ABUFX4_1 [_644_] _644__bF$buf3 d_lut_BUFX4
ABUFX4_2 [_644_] _644__bF$buf2 d_lut_BUFX4
ABUFX4_3 [_644_] _644__bF$buf1 d_lut_BUFX4
ABUFX4_4 [_644_] _644__bF$buf0 d_lut_BUFX4
ACLKBUF1_1 [clk] clk_bF$buf12 d_lut_CLKBUF1
ACLKBUF1_2 [clk] clk_bF$buf11 d_lut_CLKBUF1
ACLKBUF1_3 [clk] clk_bF$buf10 d_lut_CLKBUF1
ACLKBUF1_4 [clk] clk_bF$buf9 d_lut_CLKBUF1
ACLKBUF1_5 [clk] clk_bF$buf8 d_lut_CLKBUF1
ACLKBUF1_6 [clk] clk_bF$buf7 d_lut_CLKBUF1
ACLKBUF1_7 [clk] clk_bF$buf6 d_lut_CLKBUF1
ACLKBUF1_8 [clk] clk_bF$buf5 d_lut_CLKBUF1
ACLKBUF1_9 [clk] clk_bF$buf4 d_lut_CLKBUF1
ACLKBUF1_10 [clk] clk_bF$buf3 d_lut_CLKBUF1
ACLKBUF1_11 [clk] clk_bF$buf2 d_lut_CLKBUF1
ACLKBUF1_12 [clk] clk_bF$buf1 d_lut_CLKBUF1
ACLKBUF1_13 [clk] clk_bF$buf0 d_lut_CLKBUF1
ABUFX4_5 [_626_] _626__bF$buf3 d_lut_BUFX4
ABUFX4_6 [_626_] _626__bF$buf2 d_lut_BUFX4
ABUFX4_7 [_626_] _626__bF$buf1 d_lut_BUFX4
ABUFX2_1 [_626_] _626__bF$buf0 d_lut_BUFX2
ABUFX4_8 [_599_] _599__bF$buf3 d_lut_BUFX4
ABUFX4_9 [_599_] _599__bF$buf2 d_lut_BUFX4
ABUFX4_10 [_599_] _599__bF$buf1 d_lut_BUFX4
ABUFX4_11 [_599_] _599__bF$buf0 d_lut_BUFX4
ABUFX4_12 [x_6__7_] x_6__7_bF$buf3_ d_lut_BUFX4
ABUFX4_13 [x_6__7_] x_6__7_bF$buf2_ d_lut_BUFX4
ABUFX4_14 [x_6__7_] x_6__7_bF$buf1_ d_lut_BUFX4
ABUFX4_15 [x_6__7_] x_6__7_bF$buf0_ d_lut_BUFX4
ABUFX4_16 [y_6__7_] y_6__7_bF$buf3_ d_lut_BUFX4
ABUFX4_17 [y_6__7_] y_6__7_bF$buf2_ d_lut_BUFX4
ABUFX4_18 [y_6__7_] y_6__7_bF$buf1_ d_lut_BUFX4
ABUFX4_19 [y_6__7_] y_6__7_bF$buf0_ d_lut_BUFX4
ABUFX4_20 [_38_] _38__bF$buf3 d_lut_BUFX4
ABUFX4_21 [_38_] _38__bF$buf2 d_lut_BUFX4
ABUFX4_22 [_38_] _38__bF$buf1 d_lut_BUFX4
ABUFX4_23 [_38_] _38__bF$buf0 d_lut_BUFX4
ABUFX2_2 [_563_] _563__bF$buf3 d_lut_BUFX2
ABUFX2_3 [_563_] _563__bF$buf2 d_lut_BUFX2
ABUFX2_4 [_563_] _563__bF$buf1 d_lut_BUFX2
ABUFX2_5 [_563_] _563__bF$buf0 d_lut_BUFX2
ABUFX4_24 [y_5__7_] y_5__7_bF$buf3_ d_lut_BUFX4
ABUFX4_25 [y_5__7_] y_5__7_bF$buf2_ d_lut_BUFX4
ABUFX4_26 [y_5__7_] y_5__7_bF$buf1_ d_lut_BUFX4
ABUFX2_6 [y_5__7_] y_5__7_bF$buf0_ d_lut_BUFX2
ABUFX4_27 [_577_] _577__bF$buf3 d_lut_BUFX4
ABUFX2_7 [_577_] _577__bF$buf2 d_lut_BUFX2
ABUFX2_8 [_577_] _577__bF$buf1 d_lut_BUFX2
ABUFX2_9 [_577_] _577__bF$buf0 d_lut_BUFX2
AINVX4_1 [z_0__7_] _7__5_ d_lut_INVX4
AINVX1_1 [z_6__1_] _559_ d_lut_INVX1
AINVX1_2 [z_6__0_] _21__0_ d_lut_INVX1
ANOR2X1_1 [_559_ _21__0_] _560_ d_lut_NOR2X1
ANOR2X1_2 [z_6__1_ z_6__0_] _561_ d_lut_NOR2X1
AINVX1_3 [z_6__2_] _562_ d_lut_INVX1
AINVX4_2 [z_6__7_] _563_ d_lut_INVX4
AINVX1_4 [z_6__3_] _564_ d_lut_INVX1
ANAND2X1_1 [z_6__2_ _560_] _565_ d_lut_NAND2X1
ANAND2X1_2 [_562_ _561_] _566_ d_lut_NAND2X1
ANOR2X1_3 [z_6__3_ _566_] _567_ d_lut_NOR2X1
AINVX1_5 [z_6__5_] _568_ d_lut_INVX1
AINVX1_6 [z_6__4_] _569_ d_lut_INVX1
ANAND2X1_3 [_569_ _567_] _570_ d_lut_NAND2X1
ANOR2X1_4 [_564_ _565_] _571_ d_lut_NOR2X1
ANAND2X1_4 [z_6__4_ _571_] _572_ d_lut_NAND2X1
AOAI21X1_1 [_568_ _572_ z_6__7_] _573_ d_lut_OAI21X1
AOAI21X1_2 [z_6__5_ _570_ _563__bF$buf3] _574_ d_lut_OAI21X1
AINVX1_7 [_574_] _575_ d_lut_INVX1
AOAI21X1_3 [z_6__6_ _575_ _573_] _21__7_ d_lut_OAI21X1
AINVX1_8 [z_5__1_] _20__1_ d_lut_INVX1
ANOR2X1_5 [z_5__2_ z_5__1_] _576_ d_lut_NOR2X1
AINVX4_3 [z_5__7_] _577_ d_lut_INVX4
AINVX1_9 [z_5__2_] _578_ d_lut_INVX1
ANOR2X1_6 [_578_ _20__1_] _579_ d_lut_NOR2X1
AOAI21X1_4 [_576_ _579_ _577__bF$buf3] _580_ d_lut_OAI21X1
AOAI21X1_5 [_578_ _20__1_ z_5__7_] _581_ d_lut_OAI21X1
AOAI21X1_6 [_576_ _581_ _580_] _20__2_ d_lut_OAI21X1
AOAI21X1_7 [z_5__7_ _576_ _581_] _582_ d_lut_OAI21X1
AXNOR2X1_1 [_582_ z_5__3_] _20__3_ d_lut_XNOR2X1
AINVX2_1 [z_5__4_] _583_ d_lut_INVX2
ANAND2X1_5 [z_5__3_ _579_] _584_ d_lut_NAND2X1
AINVX1_10 [_576_] _585_ d_lut_INVX1
ANOR2X1_7 [z_5__3_ _585_] _586_ d_lut_NOR2X1
ANAND2X1_6 [_577__bF$buf2 _586_] _587_ d_lut_NAND2X1
AOAI21X1_8 [_577__bF$buf1 _584_ _587_] _588_ d_lut_OAI21X1
AXNOR2X1_2 [_588_ _583_] _20__4_ d_lut_XNOR2X1
ANAND2X1_7 [_583_ _586_] _589_ d_lut_NAND2X1
ANAND2X1_8 [_577__bF$buf0 _589_] _590_ d_lut_NAND2X1
AOAI21X1_9 [_583_ _584_ z_5__7_] _591_ d_lut_OAI21X1
ANAND2X1_9 [_591_ _590_] _592_ d_lut_NAND2X1
AXNOR2X1_3 [_592_ z_5__5_] _20__5_ d_lut_XNOR2X1
AINVX1_11 [z_5__5_] _593_ d_lut_INVX1
AOAI21X1_10 [z_5__7_ _593_ _590_] _594_ d_lut_OAI21X1
ANAND2X1_10 [z_5__5_ z_5__4_] _595_ d_lut_NAND2X1
AOAI21X1_11 [_595_ _584_ z_5__7_] _596_ d_lut_OAI21X1
AOAI21X1_12 [z_5__6_ _594_ _596_] _20__7_ d_lut_OAI21X1
AOAI21X1_13 [_594_ _20__7_ z_5__6_] _597_ d_lut_OAI21X1
ANAND2X1_11 [_596_ _20__7_] _598_ d_lut_NAND2X1
ANAND2X1_12 [_598_ _597_] _20__6_ d_lut_NAND2X1
AINVX8_1 [z_2__7_] _599_ d_lut_INVX8
AINVX1_12 [z_2__1_] _600_ d_lut_INVX1
AINVX1_13 [z_2__0_] _17__0_ d_lut_INVX1
ANAND2X1_13 [_600_ _17__0_] _601_ d_lut_NAND2X1
ANOR2X1_8 [_600_ _17__0_] _602_ d_lut_NOR2X1
ANOR2X1_9 [_599__bF$buf3 _602_] _603_ d_lut_NOR2X1
ANAND2X1_14 [_599__bF$buf2 _602_] _604_ d_lut_NAND2X1
AOAI21X1_14 [z_2__1_ z_2__0_ _604_] _605_ d_lut_OAI21X1
AOAI22X1_1 [_599__bF$buf1 _601_ _603_ _605_] _17__1_ d_lut_OAI22X1
AINVX1_14 [z_2__2_] _606_ d_lut_INVX1
AOAI21X1_15 [_599__bF$buf0 _601_ _604_] _607_ d_lut_OAI21X1
AXNOR2X1_4 [_607_ _606_] _17__2_ d_lut_XNOR2X1
AINVX1_15 [z_2__3_] _608_ d_lut_INVX1
AOR2X2_1 [_601_ z_2__2_] _609_ d_lut_OR2X2
AOAI22X1_2 [_606_ _604_ _599__bF$buf3 _609_] _610_ d_lut_OAI22X1
AXNOR2X1_5 [_610_ _608_] _17__3_ d_lut_XNOR2X1
AOR2X2_2 [_609_ z_2__3_] _611_ d_lut_OR2X2
ANAND2X1_15 [z_2__2_ _602_] _612_ d_lut_NAND2X1
ANOR2X1_10 [_608_ _612_] _613_ d_lut_NOR2X1
ANAND2X1_16 [_599__bF$buf2 _613_] _614_ d_lut_NAND2X1
AOAI21X1_16 [_599__bF$buf1 _611_ _614_] _615_ d_lut_OAI21X1
AXNOR2X1_6 [_615_ z_2__4_] _17__4_ d_lut_XNOR2X1
ANOR2X1_11 [z_2__4_ _613_] _616_ d_lut_NOR2X1
AOAI21X1_17 [z_2__3_ _609_ z_2__4_] _617_ d_lut_OAI21X1
ANAND2X1_17 [z_2__7_ _617_] _618_ d_lut_NAND2X1
AOAI21X1_18 [z_2__7_ _616_ _618_] _619_ d_lut_OAI21X1
AXNOR2X1_7 [_619_ z_2__5_] _17__5_ d_lut_XNOR2X1
AINVX1_16 [z_2__5_] _620_ d_lut_INVX1
AAND2X2_1 [_616_ _620_] _621_ d_lut_AND2X2
AOAI21X1_19 [_620_ _617_ z_2__7_] _622_ d_lut_OAI21X1
AOAI21X1_20 [z_2__7_ _621_ _622_] _623_ d_lut_OAI21X1
AXNOR2X1_8 [_623_ z_2__6_] _17__6_ d_lut_XNOR2X1
ANOR2X1_12 [z_2__7_ _621_] _624_ d_lut_NOR2X1
AAOI21X1_1 [z_2__6_ _622_ _624_] _17__7_ d_lut_AOI21X1
AINVX1_17 [z_4__2_] _19__2_ d_lut_INVX1
ANOR2X1_13 [z_4__3_ z_4__2_] _625_ d_lut_NOR2X1
AINVX8_2 [z_4__7_] _626_ d_lut_INVX8
AINVX1_18 [z_4__3_] _627_ d_lut_INVX1
ANOR2X1_14 [_627_ _19__2_] _628_ d_lut_NOR2X1
AOAI21X1_21 [_625_ _628_ _626__bF$buf3] _629_ d_lut_OAI21X1
AOAI21X1_22 [_627_ _19__2_ z_4__7_] _630_ d_lut_OAI21X1
AOAI21X1_23 [_625_ _630_ _629_] _19__3_ d_lut_OAI21X1
AOAI21X1_24 [z_4__7_ _625_ _630_] _631_ d_lut_OAI21X1
AXNOR2X1_9 [_631_ z_4__4_] _19__4_ d_lut_XNOR2X1
AINVX1_19 [z_4__4_] _632_ d_lut_INVX1
ANAND2X1_18 [_632_ _625_] _633_ d_lut_NAND2X1
AINVX1_20 [_633_] _634_ d_lut_INVX1
ANAND2X1_19 [z_4__4_ _628_] _635_ d_lut_NAND2X1
ANAND2X1_20 [z_4__7_ _635_] _636_ d_lut_NAND2X1
AOAI21X1_25 [z_4__7_ _634_ _636_] _637_ d_lut_OAI21X1
AXNOR2X1_10 [_637_ z_4__5_] _19__5_ d_lut_XNOR2X1
AINVX1_21 [z_4__5_] _638_ d_lut_INVX1
AAOI21X1_2 [_634_ _638_ z_4__7_] _639_ d_lut_AOI21X1
AOAI21X1_26 [_638_ _635_ z_4__7_] _640_ d_lut_OAI21X1
AOAI21X1_27 [z_4__6_ _639_ _640_] _19__7_ d_lut_OAI21X1
AOAI21X1_28 [_639_ _19__7_ z_4__6_] _641_ d_lut_OAI21X1
ANAND2X1_21 [_640_ _19__7_] _642_ d_lut_NAND2X1
ANAND2X1_22 [_642_ _641_] _19__6_ d_lut_NAND2X1
AINVX1_22 [z_3__3_] _18__3_ d_lut_INVX1
ANOR2X1_15 [z_3__4_ z_3__3_] _643_ d_lut_NOR2X1
AINVX8_3 [z_3__7_] _644_ d_lut_INVX8
AINVX1_23 [z_3__4_] _645_ d_lut_INVX1
ANOR2X1_16 [_645_ _18__3_] _646_ d_lut_NOR2X1
AOAI21X1_29 [_643_ _646_ _644__bF$buf3] _647_ d_lut_OAI21X1
AOAI21X1_30 [_645_ _18__3_ z_3__7_] _648_ d_lut_OAI21X1
AOAI21X1_31 [_643_ _648_ _647_] _18__4_ d_lut_OAI21X1
AOAI21X1_32 [z_3__7_ _643_ _648_] _649_ d_lut_OAI21X1
AXNOR2X1_11 [_649_ z_3__5_] _18__5_ d_lut_XNOR2X1
ANAND2X1_23 [z_3__5_ _644__bF$buf2] _650_ d_lut_NAND2X1
AOAI21X1_33 [z_3__7_ _643_ _650_] _651_ d_lut_OAI21X1
ANAND2X1_24 [z_3__5_ _646_] _652_ d_lut_NAND2X1
AINVX1_24 [_652_] _653_ d_lut_INVX1
AOAI22X1_3 [z_3__6_ _651_ _644__bF$buf1 _653_] _18__7_ d_lut_OAI22X1
AOAI21X1_34 [_651_ _18__7_ z_3__6_] _654_ d_lut_OAI21X1
AOAI21X1_35 [_644__bF$buf0 _653_ _18__7_] _655_ d_lut_OAI21X1
ANAND2X1_25 [_655_ _654_] _18__6_ d_lut_NAND2X1
AXOR2X1_1 [y_7__0_ x_7__7_] _14__0_ d_lut_XOR2X1
AINVX4_4 [z_7__7_] _656_ d_lut_INVX4
AINVX2_2 [x_7__7_] _657_ d_lut_INVX2
AAOI21X1_3 [_656_ y_7__0_ _657_] _658_ d_lut_AOI21X1
AOAI21X1_36 [_656_ y_7__0_ _658_] _659_ d_lut_OAI21X1
AXNOR2X1_12 [_659_ y_7__1_] _14__1_ d_lut_XNOR2X1
ANOR2X1_17 [x_7__7_ y_7__2_] _660_ d_lut_NOR2X1
AINVX1_25 [y_7__2_] _661_ d_lut_INVX1
ANOR2X1_18 [_657_ _661_] _662_ d_lut_NOR2X1
ANOR2X1_19 [_660_ _662_] _663_ d_lut_NOR2X1
AOAI21X1_37 [y_7__0_ y_7__1_ x_7__7_] _664_ d_lut_OAI21X1
ANAND2X1_26 [y_7__0_ y_7__1_] _665_ d_lut_NAND2X1
AINVX1_26 [_665_] _666_ d_lut_INVX1
ANAND2X1_27 [z_7__7_ x_7__7_] _667_ d_lut_NAND2X1
AOAI22X1_4 [z_7__7_ _664_ _667_ _666_] _668_ d_lut_OAI22X1
AXOR2X1_2 [_663_ _668_] _14__2_ d_lut_XOR2X1
AOR2X2_3 [y_7__0_ y_7__1_] _669_ d_lut_OR2X2
ANAND2X1_28 [x_7__7_ _661_] _670_ d_lut_NAND2X1
AOAI21X1_38 [_669_ _670_ _656_] _671_ d_lut_OAI21X1
AINVX1_27 [_662_] _672_ d_lut_INVX1
AOAI21X1_39 [_665_ _672_ z_7__7_] _673_ d_lut_OAI21X1
ANAND2X1_29 [_671_ _673_] _674_ d_lut_NAND2X1
AXNOR2X1_13 [_674_ y_7__3_] _14__3_ d_lut_XNOR2X1
ANAND2X1_30 [y_7__2_ y_7__3_] _675_ d_lut_NAND2X1
ANOR2X1_20 [_665_ _675_] _676_ d_lut_NOR2X1
AINVX1_28 [_676_] _677_ d_lut_INVX1
ANOR2X1_21 [y_7__3_ _669_] _678_ d_lut_NOR2X1
ANAND3X1_1 [_656_ _661_ _678_] _679_ d_lut_NAND3X1
AOAI21X1_40 [_656_ _677_ _679_] _680_ d_lut_OAI21X1
ANAND2X1_31 [x_7__7_ _680_] _681_ d_lut_NAND2X1
AXNOR2X1_14 [_681_ y_7__4_] _14__4_ d_lut_XNOR2X1
AINVX1_29 [y_7__5_] _682_ d_lut_INVX1
ANOR2X1_22 [y_7__2_ y_7__4_] _683_ d_lut_NOR2X1
AAOI21X1_4 [_678_ _683_ _682_] _684_ d_lut_AOI21X1
ANAND3X1_2 [_682_ _683_ _678_] _685_ d_lut_NAND3X1
ANOR2X1_23 [_657_ _685_] _686_ d_lut_NOR2X1
AOAI21X1_41 [_684_ _686_ _656_] _687_ d_lut_OAI21X1
ANAND2X1_32 [x_7__7_ y_7__4_] _688_ d_lut_NAND2X1
AOAI21X1_42 [_688_ _677_ _682_] _689_ d_lut_OAI21X1
ANAND2X1_33 [y_7__4_ y_7__5_] _690_ d_lut_NAND2X1
ANOR2X1_24 [_690_ _677_] _691_ d_lut_NOR2X1
ANOR2X1_25 [_656_ _691_] _692_ d_lut_NOR2X1
AAOI22X1_1 [_657_ y_7__5_ _689_ _692_] _693_ d_lut_AOI22X1
ANAND2X1_34 [_687_ _693_] _14__5_ d_lut_NAND2X1
AXNOR2X1_15 [x_7__7_ y_7__6_] _694_ d_lut_XNOR2X1
ANAND2X1_35 [x_7__7_ _685_] _695_ d_lut_NAND2X1
AOAI22X1_5 [_667_ _691_ z_7__7_ _695_] _696_ d_lut_OAI22X1
AXNOR2X1_16 [_696_ _694_] _14__6_ d_lut_XNOR2X1
AXNOR2X1_17 [x_7__7_ y_7__7_] _697_ d_lut_XNOR2X1
AINVX1_30 [y_7__6_] _698_ d_lut_INVX1
AOAI21X1_43 [_656_ _657_ _698_] _699_ d_lut_OAI21X1
AOAI21X1_44 [z_7__7_ _657_ y_7__6_] _700_ d_lut_OAI21X1
AAOI21X1_5 [_699_ _700_ _696_] _701_ d_lut_AOI21X1
AXOR2X1_3 [_701_ _697_] _14__7_ d_lut_XOR2X1
AINVX1_31 [z_1__1_] _702_ d_lut_INVX1
AINVX1_32 [z_1__0_] _16__0_ d_lut_INVX1
ANOR2X1_26 [_702_ _16__0_] _703_ d_lut_NOR2X1
AINVX2_3 [z_1__7_] _704_ d_lut_INVX2
ANOR2X1_27 [z_1__1_ z_1__0_] _705_ d_lut_NOR2X1
ANAND2X1_36 [_704_ _705_] _706_ d_lut_NAND2X1
AINVX1_33 [_705_] _707_ d_lut_INVX1
AAOI21X1_6 [_707_ z_1__7_ _703_] _708_ d_lut_AOI21X1
AAOI22X1_2 [z_1__7_ _703_ _706_ _708_] _16__1_ d_lut_AOI22X1
AINVX1_34 [_703_] _709_ d_lut_INVX1
AOAI21X1_45 [_704_ _709_ _706_] _710_ d_lut_OAI21X1
AXNOR2X1_18 [_710_ z_1__2_] _16__2_ d_lut_XNOR2X1
AINVX1_35 [z_1__3_] _711_ d_lut_INVX1
AINVX1_36 [z_1__2_] _712_ d_lut_INVX1
AOAI21X1_46 [_702_ _16__0_ _712_] _713_ d_lut_OAI21X1
ANAND3X1_3 [_704_ z_1__2_ _707_] _714_ d_lut_NAND3X1
AOAI21X1_47 [_704_ _713_ _714_] _715_ d_lut_OAI21X1
AXNOR2X1_19 [_715_ _711_] _16__3_ d_lut_XNOR2X1
AOR2X2_4 [_713_ z_1__3_] _716_ d_lut_OR2X2
AOAI22X1_6 [_711_ _714_ _704_ _716_] _717_ d_lut_OAI22X1
AXOR2X1_4 [_717_ z_1__4_] _16__4_ d_lut_XOR2X1
ANAND2X1_37 [z_1__4_ z_1__3_] _718_ d_lut_NAND2X1
ANOR2X1_28 [z_1__4_ _716_] _719_ d_lut_NOR2X1
ANAND2X1_38 [z_1__7_ _719_] _720_ d_lut_NAND2X1
AOAI21X1_48 [_714_ _718_ _720_] _721_ d_lut_OAI21X1
AXNOR2X1_20 [_721_ z_1__5_] _16__5_ d_lut_XNOR2X1
AINVX1_37 [z_1__5_] _722_ d_lut_INVX1
AOAI22X1_7 [z_1__7_ _722_ _718_ _714_] _723_ d_lut_OAI22X1
AOAI21X1_49 [_722_ _719_ z_1__7_] _724_ d_lut_OAI21X1
AOAI21X1_50 [z_1__6_ _723_ _724_] _16__7_ d_lut_OAI21X1
AOAI21X1_51 [_723_ _16__7_ z_1__6_] _725_ d_lut_OAI21X1
ANAND2X1_39 [_724_ _16__7_] _726_ d_lut_NAND2X1
ANAND2X1_40 [_726_ _725_] _16__6_ d_lut_NAND2X1
AINVX1_38 [z_0__1_] _15__1_ d_lut_INVX1
AINVX1_39 [z_0__2_] _727_ d_lut_INVX1
ANAND2X1_41 [_727_ _15__1_] _728_ d_lut_NAND2X1
AINVX1_40 [_728_] _729_ d_lut_INVX1
ANOR2X1_29 [_727_ _15__1_] _730_ d_lut_NOR2X1
AOAI21X1_52 [_730_ _729_ _7__5_] _731_ d_lut_OAI21X1
AOAI21X1_53 [_727_ _15__1_ z_0__7_] _732_ d_lut_OAI21X1
AOAI21X1_54 [_729_ _732_ _731_] _15__2_ d_lut_OAI21X1
AOAI21X1_55 [z_0__7_ _729_ _732_] _733_ d_lut_OAI21X1
AXNOR2X1_21 [_733_ z_0__3_] _15__3_ d_lut_XNOR2X1
ANAND2X1_42 [z_0__3_ _730_] _734_ d_lut_NAND2X1
ANOR2X1_30 [z_0__3_ _728_] _735_ d_lut_NOR2X1
ANAND2X1_43 [_7__5_ _735_] _736_ d_lut_NAND2X1
AOAI21X1_56 [_7__5_ _734_ _736_] _737_ d_lut_OAI21X1
AXNOR2X1_22 [_737_ z_0__4_] _15__4_ d_lut_XNOR2X1
AAOI21X1_7 [_730_ z_0__3_ z_0__4_] _738_ d_lut_AOI21X1
AOAI21X1_57 [z_0__3_ _728_ z_0__4_] _739_ d_lut_OAI21X1
ANAND2X1_44 [_7__5_ _739_] _740_ d_lut_NAND2X1
AOAI21X1_58 [_7__5_ _738_ _740_] _741_ d_lut_OAI21X1
AXNOR2X1_23 [_741_ z_0__5_] _15__5_ d_lut_XNOR2X1
AINVX1_41 [z_0__6_] _742_ d_lut_INVX1
AINVX1_42 [z_0__5_] _743_ d_lut_INVX1
ANAND2X1_45 [_743_ _738_] _744_ d_lut_NAND2X1
AINVX1_43 [_744_] _745_ d_lut_INVX1
AOAI21X1_59 [_743_ _739_ _7__5_] _746_ d_lut_OAI21X1
AOAI21X1_60 [_7__5_ _745_ _746_] _747_ d_lut_OAI21X1
AXNOR2X1_24 [_747_ _742_] _15__6_ d_lut_XNOR2X1
AOAI21X1_61 [_743_ _739_ _742_] _748_ d_lut_OAI21X1
AAOI22X1_3 [_744_ z_0__6_ _7__5_ _748_] _15__7_ d_lut_AOI22X1
AINVX1_44 [x_4__4_] _749_ d_lut_INVX1
ANAND2X1_46 [y_4__0_ _749_] _750_ d_lut_NAND2X1
AINVX1_45 [y_4__0_] _751_ d_lut_INVX1
ANAND2X1_47 [x_4__4_ _751_] _752_ d_lut_NAND2X1
ANAND2X1_48 [_750_ _752_] _11__0_ d_lut_NAND2X1
AOR2X2_5 [y_4__1_ x_4__5_] _753_ d_lut_OR2X2
ANAND2X1_49 [y_4__1_ x_4__5_] _754_ d_lut_NAND2X1
ANAND2X1_50 [_754_ _753_] _755_ d_lut_NAND2X1
ANAND2X1_51 [y_4__0_ x_4__4_] _756_ d_lut_NAND2X1
AINVX1_46 [_756_] _757_ d_lut_INVX1
AOAI21X1_62 [y_4__0_ _749_ z_4__7_] _758_ d_lut_OAI21X1
AOAI21X1_63 [z_4__7_ _757_ _758_] _759_ d_lut_OAI21X1
AXOR2X1_5 [_759_ _755_] _11__1_ d_lut_XOR2X1
AXNOR2X1_25 [y_4__2_ x_4__6_] _760_ d_lut_XNOR2X1
AINVX1_47 [y_4__1_] _761_ d_lut_INVX1
ANOR2X1_31 [y_4__1_ x_4__5_] _762_ d_lut_NOR2X1
AAND2X2_2 [y_4__1_ x_4__5_] _763_ d_lut_AND2X2
AOAI21X1_64 [_762_ _763_ _752_] _764_ d_lut_OAI21X1
AOAI21X1_65 [_761_ x_4__5_ _764_] _765_ d_lut_OAI21X1
AOAI21X1_66 [_756_ _762_ _754_] _766_ d_lut_OAI21X1
ANAND2X1_52 [_626__bF$buf2 _766_] _767_ d_lut_NAND2X1
AOAI21X1_67 [_626__bF$buf1 _765_ _767_] _768_ d_lut_OAI21X1
AXNOR2X1_26 [_768_ _760_] _11__2_ d_lut_XNOR2X1
ANOR2X1_32 [y_4__3_ x_4__7_] _769_ d_lut_NOR2X1
AAND2X2_3 [y_4__3_ x_4__7_] _770_ d_lut_AND2X2
AOR2X2_6 [_770_ _769_] _771_ d_lut_OR2X2
AINVX2_4 [x_4__6_] _772_ d_lut_INVX2
ANAND2X1_53 [y_4__2_ _772_] _773_ d_lut_NAND2X1
AINVX1_48 [y_4__2_] _774_ d_lut_INVX1
ANAND2X1_54 [x_4__6_ _774_] _775_ d_lut_NAND2X1
ANAND2X1_55 [_773_ _775_] _776_ d_lut_NAND2X1
ANOR2X1_33 [x_4__5_ _761_] _777_ d_lut_NOR2X1
AAOI21X1_8 [_755_ _752_ _777_] _778_ d_lut_AOI21X1
AOAI21X1_68 [_776_ _778_ _773_] _779_ d_lut_OAI21X1
ANAND2X1_56 [_766_ _776_] _780_ d_lut_NAND2X1
AOAI21X1_69 [_774_ _772_ _780_] _781_ d_lut_OAI21X1
ANAND2X1_57 [_626__bF$buf0 _781_] _782_ d_lut_NAND2X1
AOAI21X1_70 [_626__bF$buf3 _779_ _782_] _783_ d_lut_OAI21X1
AXNOR2X1_27 [_783_ _771_] _11__3_ d_lut_XNOR2X1
AINVX2_5 [x_4__7_] _784_ d_lut_INVX2
AINVX2_6 [y_4__4_] _785_ d_lut_INVX2
ANAND2X1_58 [_784_ _785_] _786_ d_lut_NAND2X1
ANAND2X1_59 [x_4__7_ y_4__4_] _787_ d_lut_NAND2X1
ANAND2X1_60 [_787_ _786_] _788_ d_lut_NAND2X1
AOAI21X1_71 [_769_ _770_ _760_] _789_ d_lut_OAI21X1
ANOR2X1_34 [x_4__6_ _774_] _790_ d_lut_NOR2X1
AINVX1_49 [y_4__3_] _791_ d_lut_INVX1
ANOR2X1_35 [x_4__7_ _791_] _792_ d_lut_NOR2X1
AAOI21X1_9 [_771_ _790_ _792_] _793_ d_lut_AOI21X1
AOAI21X1_72 [_789_ _778_ _793_] _794_ d_lut_OAI21X1
AAOI21X1_10 [y_4__2_ x_4__6_ _770_] _795_ d_lut_AOI21X1
AAOI22X1_4 [_791_ _784_ _795_ _780_] _796_ d_lut_AOI22X1
ANAND2X1_61 [_626__bF$buf2 _796_] _797_ d_lut_NAND2X1
AOAI21X1_73 [_626__bF$buf1 _794_ _797_] _798_ d_lut_OAI21X1
AXNOR2X1_28 [_798_ _788_] _11__4_ d_lut_XNOR2X1
AXNOR2X1_29 [x_4__7_ y_4__5_] _799_ d_lut_XNOR2X1
AINVX1_50 [_799_] _800_ d_lut_INVX1
AINVX1_51 [_788_] _801_ d_lut_INVX1
ANAND2X1_62 [_801_ _796_] _802_ d_lut_NAND2X1
ANAND3X1_4 [_626__bF$buf0 _787_ _802_] _803_ d_lut_NAND3X1
ANOR2X1_36 [x_4__7_ _785_] _804_ d_lut_NOR2X1
AAOI21X1_11 [_794_ _788_ _804_] _805_ d_lut_AOI21X1
AOAI21X1_74 [_626__bF$buf3 _805_ _803_] _806_ d_lut_OAI21X1
AXNOR2X1_30 [_806_ _800_] _11__5_ d_lut_XNOR2X1
ANOR2X1_37 [y_4__6_ _784_] _807_ d_lut_NOR2X1
AINVX1_52 [y_4__6_] _808_ d_lut_INVX1
ANOR2X1_38 [x_4__7_ _808_] _809_ d_lut_NOR2X1
ANOR2X1_39 [_807_ _809_] _810_ d_lut_NOR2X1
AINVX1_53 [_810_] _811_ d_lut_INVX1
AINVX1_54 [y_4__5_] _812_ d_lut_INVX1
ANAND2X1_63 [_785_ _812_] _813_ d_lut_NAND2X1
ANAND2X1_64 [_799_ _788_] _814_ d_lut_NAND2X1
AINVX1_55 [_814_] _815_ d_lut_INVX1
AAOI22X1_5 [_784_ _813_ _815_ _794_] _816_ d_lut_AOI22X1
AINVX1_56 [_769_] _817_ d_lut_INVX1
AINVX1_57 [x_4__5_] _818_ d_lut_INVX1
AOAI21X1_75 [_761_ _818_ _756_] _819_ d_lut_OAI21X1
ANAND2X1_65 [_753_ _819_] _820_ d_lut_NAND2X1
AOAI21X1_76 [_760_ _820_ _795_] _821_ d_lut_OAI21X1
ANOR2X1_40 [_799_ _788_] _822_ d_lut_NOR2X1
ANAND3X1_5 [_817_ _822_ _821_] _823_ d_lut_NAND3X1
AOAI21X1_77 [y_4__4_ y_4__5_ x_4__7_] _824_ d_lut_OAI21X1
ANAND2X1_66 [_824_ _823_] _825_ d_lut_NAND2X1
AMUX2X1_1 [_816_ _825_ z_4__7_] _826_ d_lut_MUX2X1
AXNOR2X1_31 [_826_ _811_] _11__6_ d_lut_XNOR2X1
AXNOR2X1_32 [x_4__7_ y_4__7_] _827_ d_lut_XNOR2X1
AAOI22X1_6 [x_4__7_ _813_ _822_ _796_] _828_ d_lut_AOI22X1
AOAI21X1_78 [_784_ _808_ _626__bF$buf2] _829_ d_lut_OAI21X1
AINVX1_58 [_829_] _830_ d_lut_INVX1
AOAI21X1_79 [_810_ _828_ _830_] _831_ d_lut_OAI21X1
ANOR2X1_41 [_769_ _770_] _832_ d_lut_NOR2X1
ANOR2X1_42 [_832_ _776_] _833_ d_lut_NOR2X1
AOAI21X1_80 [_769_ _770_ _790_] _834_ d_lut_OAI21X1
AOAI21X1_81 [_791_ x_4__7_ _834_] _835_ d_lut_OAI21X1
AAOI21X1_12 [_833_ _765_ _835_] _836_ d_lut_AOI21X1
AOAI21X1_82 [y_4__4_ y_4__5_ _784_] _837_ d_lut_OAI21X1
AOAI21X1_83 [_814_ _836_ _837_] _838_ d_lut_OAI21X1
AOAI21X1_84 [y_4__6_ _784_ z_4__7_] _839_ d_lut_OAI21X1
AINVX1_59 [_839_] _840_ d_lut_INVX1
AOAI21X1_85 [_809_ _838_ _840_] _841_ d_lut_OAI21X1
ANAND3X1_6 [_827_ _831_ _841_] _842_ d_lut_NAND3X1
AINVX1_60 [_827_] _843_ d_lut_INVX1
AAOI21X1_13 [_825_ _811_ _829_] _844_ d_lut_AOI21X1
AINVX1_61 [_809_] _845_ d_lut_INVX1
AAOI21X1_14 [_816_ _845_ _839_] _846_ d_lut_AOI21X1
AOAI21X1_86 [_844_ _846_ _843_] _847_ d_lut_OAI21X1
ANAND2X1_67 [_842_ _847_] _11__7_ d_lut_NAND2X1
AINVX2_7 [x_6__6_] _848_ d_lut_INVX2
ANAND2X1_68 [y_6__0_ _848_] _849_ d_lut_NAND2X1
AINVX1_62 [y_6__0_] _850_ d_lut_INVX1
ANAND2X1_69 [x_6__6_ _850_] _851_ d_lut_NAND2X1
ANAND2X1_70 [_849_ _851_] _13__0_ d_lut_NAND2X1
AOR2X2_7 [y_6__1_ x_6__7_bF$buf3_] _852_ d_lut_OR2X2
ANAND2X1_71 [y_6__1_ x_6__7_bF$buf2_] _853_ d_lut_NAND2X1
ANAND2X1_72 [_853_ _852_] _854_ d_lut_NAND2X1
ANAND2X1_73 [y_6__0_ x_6__6_] _855_ d_lut_NAND2X1
AINVX1_63 [_855_] _856_ d_lut_INVX1
AOAI21X1_87 [y_6__0_ _848_ z_6__7_] _857_ d_lut_OAI21X1
AOAI21X1_88 [z_6__7_ _856_ _857_] _858_ d_lut_OAI21X1
AXOR2X1_6 [_858_ _854_] _13__1_ d_lut_XOR2X1
AXNOR2X1_33 [x_6__7_bF$buf1_ y_6__2_] _859_ d_lut_XNOR2X1
AINVX1_64 [y_6__1_] _860_ d_lut_INVX1
ANOR2X1_43 [y_6__1_ x_6__7_bF$buf0_] _861_ d_lut_NOR2X1
AAND2X2_4 [y_6__1_ x_6__7_bF$buf3_] _862_ d_lut_AND2X2
AOAI21X1_89 [_861_ _862_ _851_] _863_ d_lut_OAI21X1
AOAI21X1_90 [_860_ x_6__7_bF$buf2_ _863_] _864_ d_lut_OAI21X1
AOAI21X1_91 [_855_ _861_ _853_] _865_ d_lut_OAI21X1
ANAND2X1_74 [_563__bF$buf2 _865_] _866_ d_lut_NAND2X1
AOAI21X1_92 [_563__bF$buf1 _864_ _866_] _867_ d_lut_OAI21X1
AXNOR2X1_34 [_867_ _859_] _13__2_ d_lut_XNOR2X1
AXOR2X1_7 [x_6__7_bF$buf1_ y_6__3_] _868_ d_lut_XOR2X1
AINVX4_5 [x_6__7_bF$buf0_] _869_ d_lut_INVX4
AINVX1_65 [y_6__2_] _870_ d_lut_INVX1
ANOR2X1_44 [x_6__7_bF$buf3_ _860_] _871_ d_lut_NOR2X1
AAOI21X1_15 [_854_ _851_ _871_] _872_ d_lut_AOI21X1
AOAI21X1_93 [x_6__7_bF$buf2_ _870_ _872_] _873_ d_lut_OAI21X1
AOAI21X1_94 [_869_ y_6__2_ _873_] _874_ d_lut_OAI21X1
AXOR2X1_8 [x_6__7_bF$buf1_ y_6__2_] _875_ d_lut_XOR2X1
ANAND2X1_75 [_865_ _875_] _876_ d_lut_NAND2X1
AOAI21X1_95 [_869_ _870_ _876_] _877_ d_lut_OAI21X1
AMUX2X1_2 [_874_ _877_ z_6__7_] _878_ d_lut_MUX2X1
AXNOR2X1_35 [_878_ _868_] _13__3_ d_lut_XNOR2X1
ANOR2X1_45 [x_6__7_bF$buf0_ y_6__4_] _879_ d_lut_NOR2X1
AINVX1_66 [y_6__4_] _880_ d_lut_INVX1
ANOR2X1_46 [_869_ _880_] _881_ d_lut_NOR2X1
ANOR2X1_47 [_879_ _881_] _882_ d_lut_NOR2X1
AINVX1_67 [_882_] _883_ d_lut_INVX1
AOAI21X1_96 [y_6__2_ y_6__3_ _869_] _884_ d_lut_OAI21X1
AINVX1_68 [y_6__3_] _885_ d_lut_INVX1
ANAND2X1_76 [_869_ _885_] _886_ d_lut_NAND2X1
ANAND2X1_77 [x_6__7_bF$buf3_ y_6__3_] _887_ d_lut_NAND2X1
ANAND2X1_78 [_887_ _886_] _888_ d_lut_NAND2X1
ANAND2X1_79 [_859_ _888_] _889_ d_lut_NAND2X1
AOAI21X1_97 [_889_ _872_ _884_] _890_ d_lut_OAI21X1
AINVX1_69 [_886_] _891_ d_lut_INVX1
AOAI21X1_98 [y_6__2_ y_6__3_ x_6__7_bF$buf2_] _892_ d_lut_OAI21X1
AOAI21X1_99 [_891_ _876_ _892_] _893_ d_lut_OAI21X1
ANAND2X1_80 [_563__bF$buf0 _893_] _894_ d_lut_NAND2X1
AOAI21X1_100 [_563__bF$buf3 _890_ _894_] _895_ d_lut_OAI21X1
AXNOR2X1_36 [_895_ _883_] _13__4_ d_lut_XNOR2X1
ANOR2X1_48 [x_6__7_bF$buf1_ y_6__5_] _896_ d_lut_NOR2X1
AINVX1_70 [y_6__5_] _897_ d_lut_INVX1
ANOR2X1_49 [_869_ _897_] _898_ d_lut_NOR2X1
ANOR2X1_50 [_896_ _898_] _899_ d_lut_NOR2X1
AAOI21X1_16 [_893_ _882_ _881_] _900_ d_lut_AOI21X1
ANAND2X1_81 [_870_ _885_] _901_ d_lut_NAND2X1
ANOR2X1_51 [_868_ _875_] _902_ d_lut_NOR2X1
AAOI22X1_7 [_869_ _901_ _864_ _902_] _903_ d_lut_AOI22X1
ANAND2X1_82 [y_6__4_ _869_] _904_ d_lut_NAND2X1
AOAI21X1_101 [_882_ _903_ _904_] _905_ d_lut_OAI21X1
AMUX2X1_3 [_905_ _900_ z_6__7_] _906_ d_lut_MUX2X1
AXOR2X1_9 [_906_ _899_] _13__5_ d_lut_XOR2X1
ANOR2X1_52 [y_6__6_ _869_] _907_ d_lut_NOR2X1
AINVX2_8 [y_6__6_] _908_ d_lut_INVX2
ANOR2X1_53 [x_6__7_bF$buf0_ _908_] _909_ d_lut_NOR2X1
ANOR2X1_54 [_907_ _909_] _910_ d_lut_NOR2X1
AINVX1_71 [_910_] _911_ d_lut_INVX1
ANAND2X1_83 [_880_ _897_] _912_ d_lut_NAND2X1
ANOR2X1_55 [_882_ _899_] _913_ d_lut_NOR2X1
AAOI22X1_8 [_869_ _912_ _913_ _890_] _914_ d_lut_AOI22X1
ANOR2X1_56 [_859_ _888_] _915_ d_lut_NOR2X1
AAOI22X1_9 [x_6__7_bF$buf3_ _901_ _865_ _915_] _916_ d_lut_AOI22X1
AOAI21X1_102 [y_6__4_ y_6__5_ x_6__7_bF$buf2_] _917_ d_lut_OAI21X1
AOAI21X1_103 [x_6__7_bF$buf1_ y_6__5_ _882_] _918_ d_lut_OAI21X1
AOAI21X1_104 [_918_ _916_ _917_] _919_ d_lut_OAI21X1
AMUX2X1_4 [_914_ _919_ z_6__7_] _920_ d_lut_MUX2X1
AXNOR2X1_37 [_920_ _911_] _13__6_ d_lut_XNOR2X1
AXNOR2X1_38 [x_6__7_bF$buf0_ y_6__7_bF$buf3_] _921_ d_lut_XNOR2X1
AINVX1_72 [_918_] _922_ d_lut_INVX1
AAOI22X1_10 [x_6__7_bF$buf3_ _912_ _893_ _922_] _923_ d_lut_AOI22X1
AOAI21X1_105 [_869_ _908_ _563__bF$buf2] _924_ d_lut_OAI21X1
AINVX1_73 [_924_] _925_ d_lut_INVX1
AOAI21X1_106 [_910_ _923_ _925_] _926_ d_lut_OAI21X1
AOAI21X1_107 [y_6__4_ y_6__5_ _869_] _927_ d_lut_OAI21X1
AINVX1_74 [_913_] _928_ d_lut_INVX1
AOAI21X1_108 [_903_ _928_ _927_] _929_ d_lut_OAI21X1
AOAI21X1_109 [y_6__6_ _869_ z_6__7_] _930_ d_lut_OAI21X1
AINVX1_75 [_930_] _931_ d_lut_INVX1
AOAI21X1_110 [_909_ _929_ _931_] _932_ d_lut_OAI21X1
ANAND3X1_7 [_921_ _926_ _932_] _933_ d_lut_NAND3X1
AINVX1_76 [_921_] _934_ d_lut_INVX1
AAOI21X1_17 [_919_ _911_ _924_] _935_ d_lut_AOI21X1
AINVX1_77 [_909_] _936_ d_lut_INVX1
AAOI21X1_18 [_914_ _936_ _930_] _937_ d_lut_AOI21X1
AOAI21X1_111 [_935_ _937_ _934_] _938_ d_lut_OAI21X1
ANAND2X1_84 [_933_ _938_] _13__7_ d_lut_NAND2X1
AINVX1_78 [x_5__5_] _939_ d_lut_INVX1
ANAND2X1_85 [y_5__0_ _939_] _940_ d_lut_NAND2X1
AINVX1_79 [y_5__0_] _941_ d_lut_INVX1
ANAND2X1_86 [x_5__5_ _941_] _942_ d_lut_NAND2X1
ANAND2X1_87 [_940_ _942_] _12__0_ d_lut_NAND2X1
AOR2X2_8 [y_5__1_ x_5__6_] _943_ d_lut_OR2X2
ANAND2X1_88 [y_5__1_ x_5__6_] _944_ d_lut_NAND2X1
ANAND2X1_89 [_944_ _943_] _945_ d_lut_NAND2X1
ANAND2X1_90 [y_5__0_ x_5__5_] _946_ d_lut_NAND2X1
AINVX1_80 [_946_] _947_ d_lut_INVX1
AOAI21X1_112 [y_5__0_ _939_ z_5__7_] _948_ d_lut_OAI21X1
AOAI21X1_113 [z_5__7_ _947_ _948_] _949_ d_lut_OAI21X1
AXOR2X1_10 [_949_ _945_] _12__1_ d_lut_XOR2X1
AXNOR2X1_39 [y_5__2_ x_5__7_] _950_ d_lut_XNOR2X1
AINVX1_81 [y_5__1_] _951_ d_lut_INVX1
ANOR2X1_57 [y_5__1_ x_5__6_] _952_ d_lut_NOR2X1
AAND2X2_5 [y_5__1_ x_5__6_] _953_ d_lut_AND2X2
AOAI21X1_114 [_952_ _953_ _942_] _954_ d_lut_OAI21X1
AOAI21X1_115 [_951_ x_5__6_ _954_] _955_ d_lut_OAI21X1
AOAI21X1_116 [_946_ _952_ _944_] _956_ d_lut_OAI21X1
ANAND2X1_91 [_577__bF$buf3 _956_] _957_ d_lut_NAND2X1
AOAI21X1_117 [_577__bF$buf2 _955_ _957_] _958_ d_lut_OAI21X1
AXNOR2X1_40 [_958_ _950_] _12__2_ d_lut_XNOR2X1
AXOR2X1_11 [x_5__7_ y_5__3_] _959_ d_lut_XOR2X1
AINVX4_6 [x_5__7_] _960_ d_lut_INVX4
AINVX1_82 [y_5__2_] _961_ d_lut_INVX1
ANOR2X1_58 [x_5__6_ _951_] _962_ d_lut_NOR2X1
AAOI21X1_19 [_945_ _942_ _962_] _963_ d_lut_AOI21X1
AOAI21X1_118 [_961_ x_5__7_ _963_] _964_ d_lut_OAI21X1
AOAI21X1_119 [y_5__2_ _960_ _964_] _965_ d_lut_OAI21X1
AXOR2X1_12 [y_5__2_ x_5__7_] _966_ d_lut_XOR2X1
ANAND2X1_92 [_956_ _966_] _967_ d_lut_NAND2X1
AOAI21X1_120 [_961_ _960_ _967_] _968_ d_lut_OAI21X1
AMUX2X1_5 [_965_ _968_ z_5__7_] _969_ d_lut_MUX2X1
AXNOR2X1_41 [_969_ _959_] _12__3_ d_lut_XNOR2X1
ANOR2X1_59 [x_5__7_ y_5__4_] _970_ d_lut_NOR2X1
AINVX1_83 [y_5__4_] _971_ d_lut_INVX1
ANOR2X1_60 [_960_ _971_] _972_ d_lut_NOR2X1
ANOR2X1_61 [_970_ _972_] _973_ d_lut_NOR2X1
AINVX1_84 [_973_] _974_ d_lut_INVX1
AOAI21X1_121 [y_5__2_ y_5__3_ _960_] _975_ d_lut_OAI21X1
AINVX1_85 [y_5__3_] _976_ d_lut_INVX1
ANAND2X1_93 [_960_ _976_] _977_ d_lut_NAND2X1
ANAND2X1_94 [x_5__7_ y_5__3_] _978_ d_lut_NAND2X1
ANAND2X1_95 [_978_ _977_] _979_ d_lut_NAND2X1
ANAND2X1_96 [_950_ _979_] _980_ d_lut_NAND2X1
AOAI21X1_122 [_980_ _963_ _975_] _981_ d_lut_OAI21X1
AINVX1_86 [_977_] _982_ d_lut_INVX1
AOAI21X1_123 [y_5__2_ y_5__3_ x_5__7_] _983_ d_lut_OAI21X1
AOAI21X1_124 [_982_ _967_ _983_] _984_ d_lut_OAI21X1
ANAND2X1_97 [_577__bF$buf1 _984_] _985_ d_lut_NAND2X1
AOAI21X1_125 [_577__bF$buf0 _981_ _985_] _986_ d_lut_OAI21X1
AXNOR2X1_42 [_986_ _974_] _12__4_ d_lut_XNOR2X1
ANOR2X1_62 [x_5__7_ y_5__5_] _987_ d_lut_NOR2X1
AINVX2_9 [y_5__5_] _988_ d_lut_INVX2
ANOR2X1_63 [_960_ _988_] _989_ d_lut_NOR2X1
ANOR2X1_64 [_987_ _989_] _990_ d_lut_NOR2X1
AAOI21X1_20 [_984_ _973_ _972_] _991_ d_lut_AOI21X1
ANAND2X1_98 [_961_ _976_] _992_ d_lut_NAND2X1
ANOR2X1_65 [_959_ _966_] _993_ d_lut_NOR2X1
AAOI22X1_11 [_960_ _992_ _955_ _993_] _994_ d_lut_AOI22X1
ANAND2X1_99 [y_5__4_ _960_] _995_ d_lut_NAND2X1
AOAI21X1_126 [_973_ _994_ _995_] _996_ d_lut_OAI21X1
AMUX2X1_6 [_996_ _991_ z_5__7_] _997_ d_lut_MUX2X1
AXOR2X1_13 [_997_ _990_] _12__5_ d_lut_XOR2X1
ANOR2X1_66 [y_5__6_ _960_] _998_ d_lut_NOR2X1
AINVX2_10 [y_5__6_] _999_ d_lut_INVX2
ANOR2X1_67 [x_5__7_ _999_] _1000_ d_lut_NOR2X1
ANOR2X1_68 [_998_ _1000_] _1001_ d_lut_NOR2X1
AINVX1_87 [_1001_] _1002_ d_lut_INVX1
ANAND2X1_100 [_971_ _988_] _1003_ d_lut_NAND2X1
ANOR2X1_69 [_973_ _990_] _1004_ d_lut_NOR2X1
AAOI22X1_12 [_960_ _1003_ _1004_ _981_] _1005_ d_lut_AOI22X1
ANOR2X1_70 [_950_ _979_] _1006_ d_lut_NOR2X1
AAOI22X1_13 [x_5__7_ _992_ _956_ _1006_] _1007_ d_lut_AOI22X1
AOAI21X1_127 [y_5__4_ y_5__5_ x_5__7_] _1008_ d_lut_OAI21X1
AOAI21X1_128 [x_5__7_ y_5__5_ _973_] _1009_ d_lut_OAI21X1
AOAI21X1_129 [_1009_ _1007_ _1008_] _1010_ d_lut_OAI21X1
AMUX2X1_7 [_1005_ _1010_ z_5__7_] _1011_ d_lut_MUX2X1
AXNOR2X1_43 [_1011_ _1002_] _12__6_ d_lut_XNOR2X1
AXNOR2X1_44 [x_5__7_ y_5__7_bF$buf3_] _1012_ d_lut_XNOR2X1
AINVX1_88 [_1009_] _1013_ d_lut_INVX1
AAOI22X1_14 [x_5__7_ _1003_ _984_ _1013_] _1014_ d_lut_AOI22X1
AOAI21X1_130 [_960_ _999_ _577__bF$buf3] _1015_ d_lut_OAI21X1
AINVX1_89 [_1015_] _1016_ d_lut_INVX1
AOAI21X1_131 [_1001_ _1014_ _1016_] _1017_ d_lut_OAI21X1
AOAI21X1_132 [y_5__4_ y_5__5_ _960_] _1018_ d_lut_OAI21X1
AINVX1_90 [_1004_] _1019_ d_lut_INVX1
AOAI21X1_133 [_994_ _1019_ _1018_] _1020_ d_lut_OAI21X1
AOAI21X1_134 [y_5__6_ _960_ z_5__7_] _1021_ d_lut_OAI21X1
AINVX1_91 [_1021_] _1022_ d_lut_INVX1
AOAI21X1_135 [_1000_ _1020_ _1022_] _1023_ d_lut_OAI21X1
ANAND3X1_8 [_1012_ _1017_ _1023_] _1024_ d_lut_NAND3X1
AINVX1_92 [_1012_] _1025_ d_lut_INVX1
AAOI21X1_21 [_1010_ _1002_ _1015_] _1026_ d_lut_AOI21X1
AINVX1_93 [_1000_] _1027_ d_lut_INVX1
AAOI21X1_22 [_1005_ _1027_ _1021_] _1028_ d_lut_AOI21X1
AOAI21X1_136 [_1026_ _1028_ _1025_] _1029_ d_lut_OAI21X1
ANAND2X1_101 [_1024_ _1029_] _12__7_ d_lut_NAND2X1
AINVX2_11 [y_1__7_] _0__0_ d_lut_INVX2
ANOR2X1_71 [z_1__7_ _0__0_] _0__1_ d_lut_NOR2X1
AINVX1_94 [y_1__5_] _1030_ d_lut_INVX1
ANOR2X1_72 [y_1__7_ _1030_] _1031_ d_lut_NOR2X1
ANOR2X1_73 [y_1__5_ _0__0_] _1032_ d_lut_NOR2X1
ANOR2X1_74 [_1031_ _1032_] _0__5_ d_lut_NOR2X1
AINVX1_95 [_0__5_] _0__3_ d_lut_INVX1
AXNOR2X1_45 [_0__5_ _704_] _8__4_ d_lut_XNOR2X1
AOAI21X1_137 [y_1__7_ _1030_ z_1__7_] _1033_ d_lut_OAI21X1
AOAI21X1_138 [_0__0_ y_1__5_ _1033_] _8__7_ d_lut_OAI21X1
AINVX1_96 [_8__4_] _8__6_ d_lut_INVX1
AINVX1_97 [x_3__3_] _1034_ d_lut_INVX1
ANAND2X1_102 [y_3__0_ _1034_] _1035_ d_lut_NAND2X1
AINVX1_98 [y_3__0_] _1036_ d_lut_INVX1
ANAND2X1_103 [x_3__3_ _1036_] _1037_ d_lut_NAND2X1
ANAND2X1_104 [_1035_ _1037_] _10__0_ d_lut_NAND2X1
AOR2X2_9 [y_3__1_ x_3__4_] _1038_ d_lut_OR2X2
ANAND2X1_105 [y_3__1_ x_3__4_] _1039_ d_lut_NAND2X1
ANAND2X1_106 [_1039_ _1038_] _1040_ d_lut_NAND2X1