* NGSPICE file created from sincos.ext - technology: scmos

* Black-box entry subcircuit for FILL abstract view
.subckt FILL gnd vdd
.ends

* Black-box entry subcircuit for AND2X2 abstract view
.subckt AND2X2 A B gnd Y vdd
.ends

* Black-box entry subcircuit for DFFSR abstract view
.subckt DFFSR Q CLK R S D gnd vdd
.ends

* Black-box entry subcircuit for OAI21X1 abstract view
.subckt OAI21X1 A B C gnd Y vdd
.ends

* Black-box entry subcircuit for NAND2X1 abstract view
.subckt NAND2X1 A B gnd Y vdd
.ends

* Black-box entry subcircuit for AOI22X1 abstract view
.subckt AOI22X1 A B C D gnd Y vdd
.ends

* Black-box entry subcircuit for OAI22X1 abstract view
.subckt OAI22X1 A B C D gnd Y vdd
.ends

* Black-box entry subcircuit for INVX2 abstract view
.subckt INVX2 A gnd Y vdd
.ends

* Black-box entry subcircuit for DFFPOSX1 abstract view
.subckt DFFPOSX1 Q CLK D gnd vdd
.ends

* Black-box entry subcircuit for OR2X2 abstract view
.subckt OR2X2 A B gnd Y vdd
.ends

* Black-box entry subcircuit for XNOR2X1 abstract view
.subckt XNOR2X1 A B gnd Y vdd
.ends

* Black-box entry subcircuit for INVX1 abstract view
.subckt INVX1 A gnd Y vdd
.ends

* Black-box entry subcircuit for BUFX4 abstract view
.subckt BUFX4 A gnd Y vdd
.ends

* Black-box entry subcircuit for INVX8 abstract view
.subckt INVX8 A gnd Y vdd
.ends

* Black-box entry subcircuit for XOR2X1 abstract view
.subckt XOR2X1 A B gnd Y vdd
.ends

* Black-box entry subcircuit for CLKBUF1 abstract view
.subckt CLKBUF1 A gnd Y vdd
.ends

* Black-box entry subcircuit for MUX2X1 abstract view
.subckt MUX2X1 A B S gnd Y vdd
.ends

* Black-box entry subcircuit for NAND3X1 abstract view
.subckt NAND3X1 A B C gnd Y vdd
.ends

* Black-box entry subcircuit for AOI21X1 abstract view
.subckt AOI21X1 A B C gnd Y vdd
.ends

* Black-box entry subcircuit for INVX4 abstract view
.subckt INVX4 A gnd Y vdd
.ends

* Black-box entry subcircuit for BUFX2 abstract view
.subckt BUFX2 A gnd Y vdd
.ends

* Black-box entry subcircuit for NOR2X1 abstract view
.subckt NOR2X1 A B gnd Y vdd
.ends

.subckt sincos vdd gnd clk rst theta[0] theta[1] theta[2] theta[3] theta[4] theta[5]
+ theta[6] theta[7] sine[0] sine[1] sine[2] sine[3] sine[4] sine[5] sine[6] sine[7]
+ cosine[0] cosine[1] cosine[2] cosine[3] cosine[4] cosine[5] cosine[6] cosine[7]
+ done
XFILL_5_1_2 gnd vdd FILL
XAND2X2_5 OR2X2_8/A OR2X2_8/B gnd AND2X2_5/Y vdd AND2X2
XFILL_13_0_2 gnd vdd FILL
XDFFSR_9 DFFSR_9/Q DFFSR_6/CLK DFFSR_9/R vdd DFFSR_9/D gnd vdd DFFSR
XOAI21X1_190 NOR2X1_109/Y NOR2X1_108/Y BUFX2_5/Y gnd OAI21X1_190/Y vdd OAI21X1
XNAND2X1_21 NAND2X1_21/A NAND2X1_21/B gnd NAND2X1_21/Y vdd NAND2X1
XNAND2X1_10 INVX1_11/A INVX2_1/A gnd NAND2X1_10/Y vdd NAND2X1
XNAND2X1_32 INVX2_2/A NOR2X1_22/B gnd OAI21X1_42/A vdd NAND2X1
XNAND2X1_43 INVX4_1/Y NOR2X1_30/Y gnd NAND2X1_43/Y vdd NAND2X1
XNAND2X1_87 NAND2X1_85/Y AOI21X1_19/B gnd NAND2X1_87/Y vdd NAND2X1
XNAND2X1_98 INVX1_82/Y INVX1_85/Y gnd AOI22X1_11/B vdd NAND2X1
XNAND2X1_54 INVX2_4/A INVX1_48/Y gnd NAND2X1_54/Y vdd NAND2X1
XNAND2X1_76 INVX4_5/Y INVX1_68/Y gnd INVX1_69/A vdd NAND2X1
XNAND2X1_65 OR2X2_5/Y NAND2X1_65/B gnd OAI21X1_76/B vdd NAND2X1
XAOI22X1_30 BUFX4_24/Y AOI22X1_28/B INVX1_166/Y AOI22X1_30/D gnd AOI21X1_56/A vdd
+ AOI22X1
XOAI22X1_3 OAI22X1_3/A OAI22X1_3/B BUFX4_1/Y INVX1_24/Y gnd OAI22X1_3/Y vdd OAI22X1
XFILL_20_1_0 gnd vdd FILL
XINVX2_23 INVX2_23/A gnd INVX2_23/Y vdd INVX2
XINVX2_12 INVX2_12/A gnd INVX2_12/Y vdd INVX2
XFILL_3_2_0 gnd vdd FILL
XFILL_11_1_0 gnd vdd FILL
XOAI21X1_19 INVX1_16/Y OAI21X1_17/Y INVX8_1/A gnd AOI21X1_1/B vdd OAI21X1
XFILL_19_2_0 gnd vdd FILL
XDFFPOSX1_103 DFFPOSX1_40/D CLKBUF1_10/Y XNOR2X1_69/Y gnd vdd DFFPOSX1
XFILL_12_3 gnd vdd FILL
XDFFPOSX1_114 OR2X2_9/A CLKBUF1_9/Y NOR2X1_89/Y gnd vdd DFFPOSX1
XNAND2X1_228 rst theta[2] gnd DFFSR_3/S vdd NAND2X1
XDFFPOSX1_136 BUFX2_6/A CLKBUF1_1/Y NAND2X1_67/Y gnd vdd DFFPOSX1
XNAND2X1_206 NOR2X1_141/Y XOR2X1_30/Y gnd OAI21X1_273/A vdd NAND2X1
XDFFPOSX1_147 INVX1_25/A CLKBUF1_5/Y XNOR2X1_34/Y gnd vdd DFFPOSX1
XDFFPOSX1_125 INVX2_6/A CLKBUF1_6/Y XNOR2X1_49/Y gnd vdd DFFPOSX1
XDFFPOSX1_169 INVX1_13/A DFFSR_8/CLK INVX1_32/Y gnd vdd DFFPOSX1
XDFFPOSX1_158 DFFPOSX1_49/D DFFSR_8/CLK NAND2X1_34/Y gnd vdd DFFPOSX1
XNAND2X1_217 OAI21X1_296/A NAND2X1_217/B gnd NOR2X1_155/A vdd NAND2X1
XOR2X2_22 OR2X2_18/A theta[7] gnd DFFSR_8/R vdd OR2X2
XOR2X2_11 OR2X2_11/A OR2X2_11/B gnd OR2X2_11/Y vdd OR2X2
XOR2X2_4 OR2X2_4/A OR2X2_4/B gnd OR2X2_4/Y vdd OR2X2
XXNOR2X1_6 XNOR2X1_6/A XNOR2X1_6/B gnd XNOR2X1_6/Y vdd XNOR2X1
XFILL_0_0_0 gnd vdd FILL
XINVX1_6 INVX1_6/A gnd INVX1_6/Y vdd INVX1
XFILL_8_1_0 gnd vdd FILL
XFILL_16_0_0 gnd vdd FILL
XAND2X2_6 OR2X2_9/A OR2X2_9/B gnd AND2X2_6/Y vdd AND2X2
XOAI21X1_191 INVX1_122/A XNOR2X1_65/Y INVX1_129/Y gnd AOI22X1_20/D vdd OAI21X1
XOAI21X1_180 INVX1_125/A INVX1_124/A BUFX4_16/Y gnd OAI21X1_180/Y vdd OAI21X1
XAOI22X1_1 INVX2_2/Y INVX1_29/A AOI22X1_1/C NOR2X1_25/Y gnd AOI22X1_1/Y vdd AOI22X1
XNAND2X1_66 OAI21X1_77/Y NAND3X1_5/Y gnd MUX2X1_1/B vdd NAND2X1
XNAND2X1_55 NAND2X1_55/A NAND2X1_54/Y gnd NOR2X1_42/B vdd NAND2X1
XNAND2X1_77 OR2X2_7/B INVX1_68/A gnd NAND2X1_77/Y vdd NAND2X1
XNAND2X1_22 NAND2X1_21/Y OAI21X1_28/Y gnd NAND2X1_22/Y vdd NAND2X1
XNAND2X1_11 OAI21X1_12/C NAND2X1_11/B gnd NAND2X1_11/Y vdd NAND2X1
XNAND2X1_33 NOR2X1_22/B INVX1_29/A gnd NOR2X1_24/A vdd NAND2X1
XNAND2X1_44 INVX4_1/Y OAI21X1_57/Y gnd NAND2X1_44/Y vdd NAND2X1
XNAND2X1_99 INVX1_83/A INVX4_6/Y gnd NAND2X1_99/Y vdd NAND2X1
XNAND2X1_88 OR2X2_8/A OR2X2_8/B gnd NAND2X1_89/A vdd NAND2X1
XAOI22X1_20 BUFX4_17/Y AOI22X1_19/B NOR2X1_110/Y AOI22X1_20/D gnd AOI22X1_20/Y vdd
+ AOI22X1
XAOI22X1_31 AOI22X1_31/A AOI21X1_63/Y INVX8_2/A AOI22X1_31/D gnd AOI22X1_31/Y vdd
+ AOI22X1
XOAI22X1_4 INVX4_4/A OAI22X1_4/B OAI22X1_5/A INVX1_26/Y gnd XOR2X1_2/B vdd OAI22X1
XFILL_20_1_1 gnd vdd FILL
XINVX2_24 INVX2_24/A gnd INVX2_24/Y vdd INVX2
XINVX2_13 INVX2_13/A gnd INVX2_13/Y vdd INVX2
XFILL_3_2_1 gnd vdd FILL
XFILL_11_1_1 gnd vdd FILL
XFILL_19_2_1 gnd vdd FILL
XDFFPOSX1_104 DFFPOSX1_41/D CLKBUF1_7/Y XNOR2X1_70/Y gnd vdd DFFPOSX1
XDFFPOSX1_137 INVX1_62/A CLKBUF1_5/Y NAND2X1_87/Y gnd vdd DFFPOSX1
XDFFPOSX1_126 INVX1_54/A CLKBUF1_6/Y XNOR2X1_51/Y gnd vdd DFFPOSX1
XDFFPOSX1_115 INVX1_102/A CLKBUF1_9/Y XNOR2X1_54/Y gnd vdd DFFPOSX1
XNAND2X1_229 rst theta[3] gnd DFFSR_4/S vdd NAND2X1
XNAND2X1_218 AOI21X1_67/B AOI21X1_67/A gnd NAND2X1_218/Y vdd NAND2X1
XDFFPOSX1_148 NOR2X1_21/A CLKBUF1_5/Y XNOR2X1_35/Y gnd vdd DFFPOSX1
XNAND2X1_207 INVX1_44/Y INVX1_57/Y gnd AOI22X1_32/B vdd NAND2X1
XDFFPOSX1_159 DFFPOSX1_50/D CLKBUF1_10/Y XNOR2X1_16/Y gnd vdd DFFPOSX1
XBUFX4_20 INVX8_4/Y gnd DFFSR_9/R vdd BUFX4
XFILL_10_1 gnd vdd FILL
XOR2X2_12 OR2X2_12/A OR2X2_12/B gnd OR2X2_12/Y vdd OR2X2
XOR2X2_5 OR2X2_5/A OR2X2_5/B gnd OR2X2_5/Y vdd OR2X2
XXNOR2X1_7 XNOR2X1_7/A INVX1_16/A gnd XNOR2X1_7/Y vdd XNOR2X1
XFILL_0_0_1 gnd vdd FILL
XINVX1_7 INVX1_7/A gnd INVX1_7/Y vdd INVX1
XFILL_8_1_1 gnd vdd FILL
XFILL_16_0_1 gnd vdd FILL
XAND2X2_7 AND2X2_7/A INVX2_14/A gnd AND2X2_7/Y vdd AND2X2
XAOI22X1_2 INVX2_3/A INVX1_34/A AOI22X1_2/C AOI22X1_2/D gnd AOI22X1_2/Y vdd AOI22X1
XOAI21X1_192 OR2X2_12/A OR2X2_12/B BUFX4_18/Y gnd OAI21X1_192/Y vdd OAI21X1
XOAI21X1_181 OAI21X1_181/A AOI21X1_37/Y OAI21X1_180/Y gnd AOI21X1_40/A vdd OAI21X1
XOAI21X1_170 INVX2_19/A INVX4_7/A NAND3X1_12/C gnd MUX2X1_9/A vdd OAI21X1
XNAND2X1_67 NAND3X1_6/Y OAI21X1_86/Y gnd NAND2X1_67/Y vdd NAND2X1
XNAND2X1_78 NAND2X1_77/Y INVX1_69/A gnd NOR2X1_56/B vdd NAND2X1
XNAND2X1_56 OAI21X1_66/Y NOR2X1_42/B gnd AOI22X1_4/D vdd NAND2X1
XNAND2X1_89 NAND2X1_89/A OR2X2_8/Y gnd XOR2X1_10/B vdd NAND2X1
XNAND2X1_12 NAND2X1_11/Y OAI21X1_13/Y gnd NAND2X1_12/Y vdd NAND2X1
XNAND2X1_23 DFFPOSX1_8/Q BUFX4_1/Y gnd NAND2X1_23/Y vdd NAND2X1
XNAND2X1_34 OAI21X1_41/Y AOI22X1_1/Y gnd NAND2X1_34/Y vdd NAND2X1
XNAND2X1_45 INVX1_42/Y AOI21X1_7/Y gnd INVX1_43/A vdd NAND2X1
XAOI22X1_21 BUFX4_17/Y OR2X2_12/Y INVX1_133/Y AOI21X1_40/A gnd AOI22X1_21/Y vdd AOI22X1
XAOI22X1_32 INVX2_27/A AOI22X1_32/B INVX1_180/A AOI22X1_32/D gnd MUX2X1_12/A vdd AOI22X1
XAOI22X1_10 OR2X2_7/B AOI22X1_8/B NAND2X1_80/B INVX1_72/Y gnd AOI22X1_10/Y vdd AOI22X1
XOAI22X1_5 OAI22X1_5/A OAI22X1_5/B INVX4_4/A OAI22X1_5/D gnd OAI22X1_5/Y vdd OAI22X1
XFILL_20_1_2 gnd vdd FILL
XINVX2_25 INVX2_25/A gnd INVX2_25/Y vdd INVX2
XINVX2_14 INVX2_14/A gnd INVX2_14/Y vdd INVX2
XFILL_3_2_2 gnd vdd FILL
XFILL_11_1_2 gnd vdd FILL
XFILL_19_2_2 gnd vdd FILL
XDFFPOSX1_138 OR2X2_7/A CLKBUF1_3/Y XOR2X1_10/Y gnd vdd DFFPOSX1
XDFFPOSX1_127 INVX1_52/A CLKBUF1_6/Y XNOR2X1_52/Y gnd vdd DFFPOSX1
XDFFPOSX1_149 NOR2X1_22/B CLKBUF1_10/Y XNOR2X1_36/Y gnd vdd DFFPOSX1
XDFFPOSX1_105 DFFPOSX1_42/D CLKBUF1_7/Y XNOR2X1_71/Y gnd vdd DFFPOSX1
XDFFPOSX1_116 INVX2_14/A CLKBUF1_9/Y XNOR2X1_55/Y gnd vdd DFFPOSX1
XNAND2X1_219 BUFX4_9/Y AOI21X1_69/A gnd OAI21X1_290/C vdd NAND2X1
XNAND2X1_208 XNOR2X1_94/Y INVX1_177/Y gnd INVX1_178/A vdd NAND2X1
XINVX8_1 INVX8_1/A gnd BUFX4_8/A vdd INVX8
XBUFX4_21 INVX8_4/Y gnd OR2X2_18/A vdd BUFX4
XBUFX4_10 BUFX4_8/A gnd BUFX4_10/Y vdd BUFX4
XOR2X2_13 OR2X2_13/A OR2X2_13/B gnd OR2X2_13/Y vdd OR2X2
XOR2X2_6 OR2X2_6/A OR2X2_6/B gnd OR2X2_6/Y vdd OR2X2
XXNOR2X1_8 XNOR2X1_8/A XNOR2X1_8/B gnd XNOR2X1_8/Y vdd XNOR2X1
XFILL_0_0_2 gnd vdd FILL
XINVX1_8 INVX1_8/A gnd INVX1_8/Y vdd INVX1
XFILL_8_1_2 gnd vdd FILL
XFILL_16_0_2 gnd vdd FILL
XFILL_9_1 gnd vdd FILL
XAND2X2_8 AND2X2_8/A AND2X2_8/B gnd AND2X2_8/Y vdd AND2X2
XXOR2X1_30 INVX2_27/A XOR2X1_30/B gnd XOR2X1_30/Y vdd XOR2X1
XOAI21X1_182 INVX1_125/A INVX1_124/A INVX4_8/Y gnd OAI21X1_182/Y vdd OAI21X1
XOAI21X1_160 INVX1_108/A AOI21X1_27/Y OAI21X1_160/C gnd OAI21X1_162/B vdd OAI21X1
XAOI22X1_3 INVX1_43/A DFFSR_7/Q INVX4_1/Y AOI22X1_3/D gnd AOI22X1_3/Y vdd AOI22X1
XOAI21X1_171 INVX2_19/A INVX4_7/Y AOI21X1_36/A gnd AOI21X1_35/C vdd OAI21X1
XOAI21X1_193 NOR2X1_99/Y NOR2X1_101/B INVX1_128/Y gnd INVX1_133/A vdd OAI21X1
XNAND2X1_68 INVX1_62/A INVX2_7/Y gnd NAND2X1_68/Y vdd NAND2X1
XNAND2X1_57 BUFX4_6/Y OAI21X1_69/Y gnd NAND2X1_57/Y vdd NAND2X1
XNAND2X1_79 NOR2X1_56/A NOR2X1_56/B gnd NAND2X1_79/Y vdd NAND2X1
XNAND2X1_46 INVX1_45/A INVX1_44/Y gnd NAND2X1_48/A vdd NAND2X1
XNAND2X1_35 INVX2_2/A NOR2X1_23/B gnd OAI22X1_5/D vdd NAND2X1
XNAND2X1_24 DFFPOSX1_8/Q NOR2X1_16/Y gnd INVX1_24/A vdd NAND2X1
XNAND2X1_13 INVX1_12/Y INVX1_13/Y gnd OR2X2_1/A vdd NAND2X1
XAOI22X1_11 INVX4_6/Y AOI22X1_11/B AOI22X1_11/C NOR2X1_65/Y gnd AOI22X1_11/Y vdd AOI22X1
XAOI22X1_33 INVX2_27/Y AOI22X1_32/B INVX1_178/Y AOI22X1_33/D gnd AOI22X1_33/Y vdd
+ AOI22X1
XAOI22X1_22 INVX4_4/Y INVX1_134/Y AOI22X1_22/C INVX2_22/A gnd XNOR2X1_67/A vdd AOI22X1
XOAI22X1_6 INVX1_35/Y OAI22X1_7/D INVX2_3/Y OR2X2_4/Y gnd XOR2X1_4/A vdd OAI22X1
XFILL_6_2_0 gnd vdd FILL
XFILL_14_1_0 gnd vdd FILL
XINVX2_26 BUFX4_26/Y gnd INVX2_26/Y vdd INVX2
XINVX2_15 INVX2_15/A gnd INVX2_15/Y vdd INVX2
XDFFPOSX1_139 INVX1_65/A CLKBUF1_3/Y XNOR2X1_40/Y gnd vdd DFFPOSX1
XDFFPOSX1_128 INVX2_27/A CLKBUF1_6/Y NAND2X1_123/Y gnd vdd DFFPOSX1
XDFFPOSX1_106 DFFPOSX1_43/D DFFSR_2/CLK XNOR2X1_72/Y gnd vdd DFFPOSX1
XDFFPOSX1_117 INVX2_13/A CLKBUF1_9/Y XNOR2X1_56/Y gnd vdd DFFPOSX1
XNAND2X1_209 NAND3X1_19/Y OAI21X1_282/Y gnd NAND2X1_209/Y vdd NAND2X1
XFILL_3_0_0 gnd vdd FILL
XINVX8_2 INVX8_2/A gnd BUFX2_1/A vdd INVX8
XBUFX4_22 INVX8_4/Y gnd BUFX4_22/Y vdd BUFX4
XBUFX4_11 BUFX4_8/A gnd BUFX4_11/Y vdd BUFX4
XFILL_19_0_0 gnd vdd FILL
XOR2X2_14 OR2X2_14/A OR2X2_14/B gnd OR2X2_14/Y vdd OR2X2
XOR2X2_7 OR2X2_7/A OR2X2_7/B gnd OR2X2_7/Y vdd OR2X2
XXNOR2X1_9 XNOR2X1_9/A INVX1_19/A gnd XNOR2X1_9/Y vdd XNOR2X1
XINVX1_9 INVX1_9/A gnd INVX1_9/Y vdd INVX1
XFILL_9_2 gnd vdd FILL
XAND2X2_9 AND2X2_9/A AND2X2_9/B gnd AND2X2_9/Y vdd AND2X2
XXOR2X1_20 XOR2X1_20/A XOR2X1_20/B gnd XOR2X1_20/Y vdd XOR2X1
XXOR2X1_31 OR2X2_5/B INVX2_27/A gnd XOR2X1_31/Y vdd XOR2X1
XOAI21X1_194 INVX1_133/A AOI22X1_20/Y OAI21X1_192/Y gnd XNOR2X1_66/A vdd OAI21X1
XOAI21X1_183 AND2X2_8/Y OAI21X1_183/B OAI21X1_182/Y gnd AOI22X1_18/C vdd OAI21X1
XAOI22X1_4 INVX1_49/Y INVX2_5/Y AOI22X1_4/C AOI22X1_4/D gnd AOI22X1_4/Y vdd AOI22X1
XOAI21X1_161 INVX2_15/A INVX2_12/Y INVX8_3/A gnd INVX1_112/A vdd OAI21X1
XOAI21X1_150 BUFX4_3/Y AOI21X1_26/A NAND2X1_117/Y gnd XNOR2X1_49/A vdd OAI21X1
XOAI21X1_172 INVX4_7/A INVX2_19/Y INVX8_1/A gnd OAI21X1_173/A vdd OAI21X1
XNAND2X1_14 BUFX4_10/Y NOR2X1_8/Y gnd OAI22X1_2/B vdd NAND2X1
XNAND2X1_25 OAI21X1_35/Y OAI21X1_34/Y gnd NAND2X1_25/Y vdd NAND2X1
XNAND2X1_69 INVX2_7/A INVX1_62/Y gnd OAI21X1_89/C vdd NAND2X1
XNAND2X1_58 INVX2_5/Y INVX2_6/Y gnd NAND2X1_60/B vdd NAND2X1
XNAND2X1_47 INVX1_44/A INVX1_45/Y gnd AOI21X1_8/B vdd NAND2X1
XNAND2X1_36 INVX2_3/Y INVX1_33/A gnd AOI22X1_2/C vdd NAND2X1
XAOI22X1_12 INVX4_6/Y AOI22X1_12/B INVX1_90/A AOI22X1_12/D gnd MUX2X1_7/A vdd AOI22X1
XAOI22X1_23 NOR2X1_116/B NOR2X1_111/Y NOR2X1_115/A INVX2_22/Y gnd XOR2X1_20/A vdd
+ AOI22X1
XOAI22X1_7 INVX2_3/A INVX1_37/Y OAI22X1_7/C OAI22X1_7/D gnd OAI22X1_7/Y vdd OAI22X1
XFILL_6_2_1 gnd vdd FILL
XFILL_14_1_1 gnd vdd FILL
XINVX2_16 INVX2_16/A gnd INVX2_16/Y vdd INVX2
XINVX2_27 INVX2_27/A gnd INVX2_27/Y vdd INVX2
XDFFPOSX1_107 INVX1_94/A DFFSR_8/CLK INVX4_1/Y gnd vdd DFFPOSX1
XCLKBUF1_1 clk gnd CLKBUF1_1/Y vdd CLKBUF1
XDFFPOSX1_129 INVX1_79/A CLKBUF1_1/Y NAND2X1_48/Y gnd vdd DFFPOSX1
XDFFPOSX1_118 AND2X2_10/A CLKBUF1_13/Y XNOR2X1_57/Y gnd vdd DFFPOSX1
XFILL_3_0_1 gnd vdd FILL
XINVX8_3 INVX8_3/A gnd BUFX4_3/A vdd INVX8
XBUFX4_23 INVX8_4/Y gnd DFFSR_11/R vdd BUFX4
XFILL_19_0_1 gnd vdd FILL
XBUFX4_12 BUFX4_13/A gnd OR2X2_7/B vdd BUFX4
XOR2X2_15 BUFX4_22/Y theta[0] gnd DFFSR_1/R vdd OR2X2
XOR2X2_8 OR2X2_8/A OR2X2_8/B gnd OR2X2_8/Y vdd OR2X2
XFILL_9_3 gnd vdd FILL
XXOR2X1_10 XOR2X1_10/A XOR2X1_10/B gnd XOR2X1_10/Y vdd XOR2X1
XXOR2X1_21 INVX2_21/A XOR2X1_21/B gnd XOR2X1_21/Y vdd XOR2X1
XXOR2X1_32 BUFX2_57/A BUFX2_58/A gnd XOR2X1_32/Y vdd XOR2X1
XOAI21X1_140 INVX8_3/A INVX1_99/Y OAI21X1_140/C gnd XOR2X1_14/A vdd OAI21X1
XOAI21X1_195 BUFX2_2/Y XNOR2X1_66/Y OAI21X1_190/Y gnd OAI21X1_195/Y vdd OAI21X1
XAOI22X1_5 INVX2_5/Y AOI22X1_6/B INVX1_55/Y AOI22X1_5/D gnd MUX2X1_1/A vdd AOI22X1
XOAI21X1_184 BUFX2_2/Y AOI21X1_40/A NAND2X1_146/Y gnd XNOR2X1_62/A vdd OAI21X1
XOAI21X1_162 NOR2X1_82/Y OAI21X1_162/B INVX1_112/Y gnd NAND3X1_11/C vdd OAI21X1
XOAI21X1_173 OAI21X1_173/A AOI21X1_35/Y OAI21X1_173/C gnd OAI21X1_173/Y vdd OAI21X1
XOAI21X1_151 BUFX4_2/Y AOI21X1_26/Y NAND3X1_9/Y gnd XNOR2X1_51/A vdd OAI21X1
XNAND2X1_59 INVX2_5/A INVX2_6/A gnd NAND3X1_4/B vdd NAND2X1
XNAND2X1_48 NAND2X1_48/A AOI21X1_8/B gnd NAND2X1_48/Y vdd NAND2X1
XNAND2X1_26 OR2X2_3/A OR2X2_3/B gnd INVX1_26/A vdd NAND2X1
XNAND2X1_15 OR2X2_1/B NOR2X1_8/Y gnd NOR2X1_10/B vdd NAND2X1
XNAND2X1_37 XOR2X1_4/B OR2X2_4/B gnd OAI22X1_7/C vdd NAND2X1
XNAND2X1_190 INVX1_78/Y INVX1_156/Y gnd AOI22X1_28/B vdd NAND2X1
XAOI22X1_13 INVX4_6/A AOI22X1_11/B NAND2X1_92/A NOR2X1_70/Y gnd AOI22X1_13/Y vdd AOI22X1
XAOI22X1_24 INVX2_22/Y AOI22X1_24/B NOR2X1_111/Y AOI22X1_24/D gnd AOI22X1_24/Y vdd
+ AOI22X1
XXNOR2X1_90 XNOR2X1_90/A XOR2X1_29/Y gnd XNOR2X1_90/Y vdd XNOR2X1
XOAI22X1_8 OAI22X1_8/A BUFX2_58/A BUFX2_57/A NOR2X1_90/Y gnd OAI22X1_8/Y vdd OAI22X1
XFILL_6_2_2 gnd vdd FILL
XFILL_14_1_2 gnd vdd FILL
XFILL_19_1 gnd vdd FILL
XINVX2_17 INVX2_17/A gnd INVX2_17/Y vdd INVX2
XMUX2X1_1 MUX2X1_1/A MUX2X1_1/B INVX8_2/A gnd MUX2X1_1/Y vdd MUX2X1
XDFFPOSX1_108 BUFX2_55/A CLKBUF1_12/Y BUFX2_40/A gnd vdd DFFPOSX1
XDFFPOSX1_119 INVX2_15/A CLKBUF1_13/Y XOR2X1_16/Y gnd vdd DFFPOSX1
XCLKBUF1_2 clk gnd DFFSR_6/CLK vdd CLKBUF1
XFILL_3_0_2 gnd vdd FILL
XINVX8_4 rst gnd INVX8_4/Y vdd INVX8
XDFFPOSX1_90 BUFX4_13/A CLKBUF1_5/Y NAND2X1_192/Y gnd vdd DFFPOSX1
XFILL_19_0_2 gnd vdd FILL
XBUFX4_24 BUFX2_6/A gnd BUFX4_24/Y vdd BUFX4
XBUFX4_13 BUFX4_13/A gnd BUFX4_13/Y vdd BUFX4
XOR2X2_9 OR2X2_9/A OR2X2_9/B gnd OR2X2_9/Y vdd OR2X2
XOR2X2_16 BUFX4_22/Y theta[1] gnd DFFSR_2/R vdd OR2X2
XFILL_12_2_0 gnd vdd FILL
XXOR2X1_11 INVX4_6/A INVX1_85/A gnd XOR2X1_11/Y vdd XOR2X1
XXOR2X1_22 INVX2_14/A XOR2X1_22/B gnd XOR2X1_22/Y vdd XOR2X1
XXOR2X1_33 INVX1_118/A INVX4_7/A gnd XOR2X1_33/Y vdd XOR2X1
XFILL_7_1 gnd vdd FILL
XNAND3X1_1 INVX4_4/Y INVX1_25/Y NAND3X1_2/C gnd NAND3X1_1/Y vdd NAND3X1
XFILL_1_1_0 gnd vdd FILL
XOAI21X1_130 INVX4_6/Y INVX2_10/Y BUFX2_7/Y gnd INVX1_89/A vdd OAI21X1
XOAI21X1_141 NOR2X1_75/Y AND2X2_6/Y AOI21X1_23/B gnd OAI21X1_142/C vdd OAI21X1
XOAI21X1_152 INVX1_100/Y INVX1_110/Y INVX1_99/A gnd OAI21X1_152/Y vdd OAI21X1
XOAI21X1_196 INVX4_8/A INVX2_7/Y BUFX2_5/Y gnd INVX1_130/A vdd OAI21X1
XAOI22X1_6 INVX2_5/A AOI22X1_6/B NAND3X1_5/B AOI22X1_4/Y gnd AOI22X1_6/Y vdd AOI22X1
XOAI21X1_185 NOR2X1_102/Y AND2X2_9/Y BUFX2_2/Y gnd OAI21X1_186/C vdd OAI21X1
XOAI21X1_174 XOR2X1_17/B INVX2_8/Y BUFX2_4/Y gnd OAI21X1_174/Y vdd OAI21X1
XOAI21X1_163 AOI21X1_28/Y AOI21X1_29/Y INVX1_113/Y gnd NAND2X1_123/B vdd OAI21X1
XNAND2X1_180 BUFX2_6/Y INVX1_154/Y gnd AOI22X1_29/C vdd NAND2X1
XNAND2X1_191 INVX1_157/A INVX1_161/Y gnd INVX1_162/A vdd NAND2X1
XNAND2X1_49 OR2X2_5/A OR2X2_5/B gnd OAI21X1_66/C vdd NAND2X1
XFILL_9_2_0 gnd vdd FILL
XNAND2X1_27 INVX4_4/A INVX2_2/A gnd OAI22X1_5/A vdd NAND2X1
XNAND2X1_16 BUFX4_11/Y NOR2X1_11/B gnd NAND2X1_16/Y vdd NAND2X1
XNAND2X1_38 INVX2_3/A NOR2X1_28/Y gnd NAND2X1_38/Y vdd NAND2X1
XFILL_17_1_0 gnd vdd FILL
XAOI22X1_14 INVX4_6/A AOI22X1_12/B NAND2X1_97/B INVX1_88/Y gnd AOI22X1_14/Y vdd AOI22X1
XAOI22X1_25 INVX2_25/A AOI22X1_25/B INVX1_149/A AOI21X1_48/A gnd MUX2X1_10/A vdd AOI22X1
XXNOR2X1_91 INVX1_54/A XOR2X1_29/B gnd XNOR2X1_91/Y vdd XNOR2X1
XXNOR2X1_80 XNOR2X1_80/A INVX2_24/Y gnd XNOR2X1_80/Y vdd XNOR2X1
XOAI22X1_9 XOR2X1_17/B INVX2_8/Y INVX4_8/Y OAI22X1_9/D gnd AND2X2_8/A vdd OAI22X1
XFILL_19_2 gnd vdd FILL
XINVX2_18 INVX2_18/A gnd INVX2_18/Y vdd INVX2
XFILL_6_0_0 gnd vdd FILL
XXOR2X1_1 OR2X2_3/A INVX2_2/A gnd XOR2X1_1/Y vdd XOR2X1
XMUX2X1_2 MUX2X1_2/A MUX2X1_2/B INVX4_2/A gnd MUX2X1_2/Y vdd MUX2X1
XDFFPOSX1_109 BUFX2_57/A DFFSR_8/CLK BUFX2_18/Y gnd vdd DFFPOSX1
XCLKBUF1_3 clk gnd CLKBUF1_3/Y vdd CLKBUF1
XBUFX4_25 BUFX2_6/A gnd BUFX4_25/Y vdd BUFX4
XBUFX4_14 BUFX4_13/A gnd XOR2X1_8/A vdd BUFX4
XDFFPOSX1_91 INVX1_134/A CLKBUF1_7/Y XOR2X1_17/Y gnd vdd DFFPOSX1
XDFFPOSX1_80 INVX1_78/A CLKBUF1_1/Y XNOR2X1_97/Y gnd vdd DFFPOSX1
XOR2X2_17 OR2X2_18/A theta[2] gnd DFFSR_3/R vdd OR2X2
XFILL_12_2_1 gnd vdd FILL
XXOR2X1_12 INVX1_82/A INVX4_6/A gnd NOR2X1_65/B vdd XOR2X1
XXOR2X1_23 INVX2_13/A XOR2X1_23/B gnd XOR2X1_23/Y vdd XOR2X1
XXOR2X1_34 XOR2X1_34/A XOR2X1_34/B gnd XOR2X1_34/Y vdd XOR2X1
XFILL_7_2 gnd vdd FILL
XNAND3X1_2 INVX1_29/Y NOR2X1_22/Y NAND3X1_2/C gnd NOR2X1_23/B vdd NAND3X1
XFILL_1_1_1 gnd vdd FILL
XOAI21X1_142 INVX1_100/Y OR2X2_9/B OAI21X1_142/C gnd AOI21X1_27/B vdd OAI21X1
XOAI21X1_131 INVX1_87/A AOI22X1_14/Y INVX1_89/Y gnd NAND3X1_8/B vdd OAI21X1
XOAI21X1_120 INVX1_82/Y INVX4_6/Y NAND2X1_92/Y gnd MUX2X1_5/B vdd OAI21X1
XAOI22X1_7 INVX4_5/Y AOI22X1_7/B AOI22X1_7/C AOI22X1_7/D gnd AOI22X1_7/Y vdd AOI22X1
XOAI21X1_153 XNOR2X1_47/B OAI21X1_153/B AOI21X1_25/Y gnd NAND3X1_10/C vdd OAI21X1
XOAI21X1_164 INVX1_116/A INVX1_117/Y OAI22X1_8/Y gnd AOI21X1_32/A vdd OAI21X1
XOAI21X1_197 INVX1_127/A NOR2X1_108/B INVX1_130/Y gnd NAND3X1_13/B vdd OAI21X1
XOAI21X1_186 BUFX2_2/Y XNOR2X1_64/Y OAI21X1_186/C gnd OAI21X1_186/Y vdd OAI21X1
XOAI21X1_175 BUFX2_4/Y INVX1_122/Y OAI21X1_174/Y gnd XNOR2X1_58/A vdd OAI21X1
XFILL_9_2_1 gnd vdd FILL
XNAND2X1_181 NAND2X1_181/A AOI22X1_29/C gnd XNOR2X1_84/B vdd NAND2X1
XNAND2X1_192 NAND3X1_18/Y OAI21X1_257/Y gnd NAND2X1_192/Y vdd NAND2X1
XNAND2X1_28 INVX2_2/A INVX1_25/Y gnd OAI21X1_38/B vdd NAND2X1
XNAND2X1_17 INVX8_1/A OAI21X1_17/Y gnd NAND2X1_17/Y vdd NAND2X1
XNAND2X1_39 OAI21X1_49/Y OAI21X1_50/Y gnd NAND2X1_40/A vdd NAND2X1
XNAND2X1_170 XOR2X1_23/B INVX2_13/Y gnd AOI21X1_44/A vdd NAND2X1
XFILL_17_1_1 gnd vdd FILL
XAOI22X1_26 INVX2_25/Y AOI22X1_25/B INVX1_147/Y AOI22X1_26/D gnd AOI22X1_26/Y vdd
+ AOI22X1
XAOI22X1_15 INVX1_103/Y INVX2_14/Y AOI21X1_25/Y AOI22X1_15/D gnd AOI22X1_15/Y vdd
+ AOI22X1
XXNOR2X1_92 XNOR2X1_92/A NOR2X1_141/Y gnd XNOR2X1_92/Y vdd XNOR2X1
XXNOR2X1_70 XNOR2X1_70/A INVX2_23/Y gnd XNOR2X1_70/Y vdd XNOR2X1
XXNOR2X1_81 MUX2X1_10/Y INVX1_144/Y gnd XNOR2X1_81/Y vdd XNOR2X1
XAOI21X1_70 INVX1_118/A INVX4_7/A MUX2X1_13/B gnd AOI21X1_70/Y vdd AOI21X1
XINVX2_19 INVX2_19/A gnd INVX2_19/Y vdd INVX2
XFILL_6_0_1 gnd vdd FILL
XXOR2X1_2 XOR2X1_2/A XOR2X1_2/B gnd XOR2X1_2/Y vdd XOR2X1
XMUX2X1_3 MUX2X1_3/A MUX2X1_3/B INVX4_2/A gnd MUX2X1_3/Y vdd MUX2X1
XCLKBUF1_4 clk gnd DFFSR_2/CLK vdd CLKBUF1
XDFFPOSX1_81 OR2X2_8/B CLKBUF1_1/Y XNOR2X1_98/Y gnd vdd DFFPOSX1
XDFFPOSX1_70 XOR2X1_30/B CLKBUF1_13/Y XNOR2X1_76/Y gnd vdd DFFPOSX1
XBUFX4_26 BUFX2_6/A gnd BUFX4_26/Y vdd BUFX4
XBUFX4_15 BUFX4_13/A gnd INVX4_5/A vdd BUFX4
XDFFPOSX1_92 INVX1_135/A CLKBUF1_7/Y XNOR2X1_58/Y gnd vdd DFFPOSX1
XOR2X2_18 OR2X2_18/A theta[3] gnd DFFSR_4/R vdd OR2X2
XFILL_12_2_2 gnd vdd FILL
XXOR2X1_13 MUX2X1_6/Y XOR2X1_13/B gnd XOR2X1_13/Y vdd XOR2X1
XXOR2X1_24 NOR2X1_78/A INVX2_25/A gnd INVX2_24/A vdd XOR2X1
XNAND3X1_3 INVX2_3/Y INVX1_36/A INVX1_33/Y gnd OAI22X1_7/D vdd NAND3X1
XFILL_1_1_2 gnd vdd FILL
XOAI21X1_165 INVX1_116/A BUFX2_58/A BUFX2_57/A gnd OAI21X1_166/B vdd OAI21X1
XOAI21X1_143 INVX1_99/A NOR2X1_75/Y NAND2X1_106/A gnd OAI21X1_143/Y vdd OAI21X1
XOAI21X1_198 INVX2_7/A BUFX4_16/Y INVX4_2/A gnd INVX1_131/A vdd OAI21X1
XOAI21X1_132 INVX1_83/A INVX2_9/A INVX4_6/Y gnd OAI21X1_132/Y vdd OAI21X1
XOAI21X1_176 INVX4_2/A AND2X2_8/Y NAND2X1_136/Y gnd XNOR2X1_59/A vdd OAI21X1
XOAI21X1_187 OR2X2_12/A OR2X2_12/B INVX4_8/Y gnd OAI21X1_187/Y vdd OAI21X1
XOAI21X1_121 INVX1_82/A INVX1_85/A INVX4_6/Y gnd OAI21X1_121/Y vdd OAI21X1
XAOI22X1_8 INVX4_5/Y AOI22X1_8/B INVX1_74/A AOI22X1_8/D gnd MUX2X1_4/A vdd AOI22X1
XOAI21X1_110 INVX1_77/A OAI21X1_110/B INVX1_75/Y gnd NAND3X1_7/C vdd OAI21X1
XOAI21X1_154 INVX2_13/A AND2X2_10/A INVX2_12/A gnd NAND2X1_122/A vdd OAI21X1
XFILL_9_2_2 gnd vdd FILL
XNAND2X1_193 INVX1_167/A INVX2_6/Y gnd NAND2X1_195/A vdd NAND2X1
XNAND2X1_182 BUFX4_24/Y XOR2X1_27/B gnd OAI21X1_236/C vdd NAND2X1
XNAND2X1_160 OR2X2_13/A OR2X2_13/B gnd NOR2X1_115/B vdd NAND2X1
XNAND2X1_18 INVX1_19/Y NOR2X1_13/Y gnd INVX1_20/A vdd NAND2X1
XNAND2X1_29 OAI21X1_38/Y OAI21X1_39/Y gnd NAND2X1_29/Y vdd NAND2X1
XNAND2X1_171 BUFX4_3/Y OAI21X1_216/Y gnd OAI21X1_218/C vdd NAND2X1
XFILL_17_1_2 gnd vdd FILL
XAOI22X1_27 BUFX4_26/Y AOI22X1_29/B AOI22X1_27/C AOI22X1_27/D gnd AOI22X1_27/Y vdd
+ AOI22X1
XAOI22X1_16 INVX2_12/Y AOI22X1_17/B INVX1_108/Y AOI21X1_26/A gnd MUX2X1_8/A vdd AOI22X1
XXNOR2X1_60 XNOR2X1_60/A XNOR2X1_60/B gnd XNOR2X1_60/Y vdd XNOR2X1
XXNOR2X1_93 XNOR2X1_93/A XOR2X1_30/Y gnd XNOR2X1_93/Y vdd XNOR2X1
XXNOR2X1_82 XNOR2X1_82/A XOR2X1_26/Y gnd XNOR2X1_82/Y vdd XNOR2X1
XXNOR2X1_71 AOI22X1_24/Y XOR2X1_21/Y gnd XNOR2X1_71/Y vdd XNOR2X1
XAOI21X1_60 AOI21X1_60/A AOI21X1_59/Y AOI21X1_60/C gnd AOI21X1_60/Y vdd AOI21X1
XFILL_6_0_2 gnd vdd FILL
XXOR2X1_3 XOR2X1_3/A XOR2X1_3/B gnd XOR2X1_3/Y vdd XOR2X1
XMUX2X1_4 MUX2X1_4/A MUX2X1_4/B INVX4_2/A gnd MUX2X1_4/Y vdd MUX2X1
XCLKBUF1_5 clk gnd CLKBUF1_5/Y vdd CLKBUF1
XFILL_17_1 gnd vdd FILL
XDFFPOSX1_82 INVX4_6/A CLKBUF1_1/Y NAND2X1_209/Y gnd vdd DFFPOSX1
XDFFPOSX1_93 OR2X2_13/A CLKBUF1_7/Y XNOR2X1_59/Y gnd vdd DFFPOSX1
XDFFPOSX1_71 INVX1_44/A CLKBUF1_6/Y XNOR2X1_79/Y gnd vdd DFFPOSX1
XDFFPOSX1_60 XOR2X1_23/B CLKBUF1_9/Y XNOR2X1_99/Y gnd vdd DFFPOSX1
XBUFX4_16 BUFX4_16/A gnd BUFX4_16/Y vdd BUFX4
XBUFX4_27 INVX4_3/Y gnd BUFX4_27/Y vdd BUFX4
XFILL_15_2_0 gnd vdd FILL
XOR2X2_19 DFFSR_11/R theta[4] gnd DFFSR_5/R vdd OR2X2
XXOR2X1_14 XOR2X1_14/A XOR2X1_14/B gnd XOR2X1_14/Y vdd XOR2X1
XXOR2X1_25 INVX2_9/A XOR2X1_25/B gnd XOR2X1_25/Y vdd XOR2X1
XBUFX4_1 BUFX4_3/A gnd BUFX4_1/Y vdd BUFX4
XFILL_4_1_0 gnd vdd FILL
XINVX4_1 DFFSR_8/Q gnd INVX4_1/Y vdd INVX4
XFILL_12_0_0 gnd vdd FILL
XNAND3X1_4 BUFX2_1/Y NAND3X1_4/B NAND3X1_4/C gnd NAND3X1_4/Y vdd NAND3X1
XOAI21X1_166 NOR2X1_90/Y OAI21X1_166/B NAND2X1_125/Y gnd AOI21X1_33/B vdd OAI21X1
XOAI21X1_144 BUFX4_4/Y AOI21X1_27/B OAI21X1_144/C gnd XNOR2X1_47/A vdd OAI21X1
XOAI21X1_199 INVX1_132/A XNOR2X1_66/A INVX1_131/Y gnd NAND3X1_13/C vdd OAI21X1
XOAI21X1_188 INVX4_8/Y OR2X2_12/B INVX2_20/A gnd OAI21X1_189/A vdd OAI21X1
XOAI21X1_177 NOR2X1_110/B AOI21X1_37/Y OAI21X1_177/C gnd OAI21X1_177/Y vdd OAI21X1
XOAI21X1_133 AOI22X1_11/Y INVX1_90/Y OAI21X1_132/Y gnd OAI21X1_135/B vdd OAI21X1
XOAI21X1_122 NAND2X1_96/Y AOI21X1_19/Y OAI21X1_121/Y gnd AOI22X1_12/D vdd OAI21X1
XAOI22X1_9 OR2X2_7/B AOI22X1_7/B AOI22X1_9/C NOR2X1_56/Y gnd AOI22X1_9/Y vdd AOI22X1
XOAI21X1_111 AOI21X1_17/Y AOI21X1_18/Y INVX1_76/Y gnd NAND2X1_84/B vdd OAI21X1
XOAI21X1_100 BUFX2_3/Y AOI22X1_8/D NAND2X1_80/Y gnd XNOR2X1_36/A vdd OAI21X1
XOAI21X1_155 INVX2_12/Y INVX2_15/Y BUFX4_1/Y gnd INVX1_111/A vdd OAI21X1
XNAND2X1_161 NAND3X1_15/Y NAND3X1_14/Y gnd XNOR2X1_70/A vdd NAND2X1
XNAND2X1_19 INVX1_19/A NOR2X1_14/Y gnd NAND2X1_19/Y vdd NAND2X1
XNAND2X1_150 INVX2_21/A INVX1_134/Y gnd AOI22X1_22/C vdd NAND2X1
XNAND2X1_194 INVX2_6/A INVX1_167/Y gnd AOI21X1_58/B vdd NAND2X1
XNAND2X1_183 INVX2_26/Y INVX1_155/Y gnd NAND2X1_183/Y vdd NAND2X1
XNAND2X1_172 AOI21X1_44/C AOI21X1_47/A gnd NAND2X1_172/Y vdd NAND2X1
XAOI22X1_28 INVX2_26/Y AOI22X1_28/B AOI22X1_28/C INVX1_162/Y gnd NOR2X1_138/B vdd
+ AOI22X1
XAOI22X1_17 INVX2_12/A AOI22X1_17/B NOR2X1_84/Y AOI22X1_15/Y gnd AOI22X1_17/Y vdd
+ AOI22X1
XXNOR2X1_61 BUFX4_17/Y INVX1_124/A gnd XNOR2X1_61/Y vdd XNOR2X1
XXNOR2X1_83 XNOR2X1_83/A XOR2X1_27/Y gnd XNOR2X1_83/Y vdd XNOR2X1
XFILL_5_1 gnd vdd FILL
XXNOR2X1_94 INVX1_44/A INVX2_27/A gnd XNOR2X1_94/Y vdd XNOR2X1
XXNOR2X1_72 XNOR2X1_72/A XOR2X1_3/B gnd XNOR2X1_72/Y vdd XNOR2X1
XXNOR2X1_50 INVX2_12/A AND2X2_10/A gnd INVX1_104/A vdd XNOR2X1
XAOI21X1_61 AOI21X1_61/A AOI21X1_61/B AOI21X1_61/C gnd AOI21X1_61/Y vdd AOI21X1
XOAI21X1_1 INVX1_5/Y OAI21X1_1/B INVX4_2/A gnd OAI21X1_1/Y vdd OAI21X1
XAOI21X1_50 MUX2X1_10/B INVX1_144/Y INVX1_148/A gnd AOI21X1_50/Y vdd AOI21X1
XFILL_9_0_0 gnd vdd FILL
XMUX2X1_5 MUX2X1_5/A MUX2X1_5/B INVX4_3/A gnd MUX2X1_5/Y vdd MUX2X1
XXOR2X1_4 XOR2X1_4/A XOR2X1_4/B gnd XOR2X1_4/Y vdd XOR2X1
XCLKBUF1_6 clk gnd CLKBUF1_6/Y vdd CLKBUF1
XFILL_17_2 gnd vdd FILL
XDFFPOSX1_83 XOR2X1_17/B CLKBUF1_5/Y XOR2X1_25/Y gnd vdd DFFPOSX1
XDFFPOSX1_94 OR2X2_13/B CLKBUF1_7/Y XNOR2X1_60/Y gnd vdd DFFPOSX1
XDFFPOSX1_72 OR2X2_5/B CLKBUF1_6/Y XNOR2X1_80/Y gnd vdd DFFPOSX1
XDFFPOSX1_50 BUFX2_34/A CLKBUF1_10/Y DFFPOSX1_50/D gnd vdd DFFPOSX1
XDFFPOSX1_61 AND2X2_10/B CLKBUF1_13/Y DFFPOSX1_61/D gnd vdd DFFPOSX1
XBUFX4_17 BUFX4_16/A gnd BUFX4_17/Y vdd BUFX4
XFILL_15_2_1 gnd vdd FILL
XXOR2X1_26 INVX2_10/A XOR2X1_26/B gnd XOR2X1_26/Y vdd XOR2X1
XBUFX4_2 BUFX4_3/A gnd BUFX4_2/Y vdd BUFX4
XXOR2X1_15 INVX2_19/A INVX4_7/A gnd XOR2X1_34/B vdd XOR2X1
XFILL_4_1_1 gnd vdd FILL
XINVX4_2 INVX4_2/A gnd INVX4_2/Y vdd INVX4
XFILL_12_0_1 gnd vdd FILL
XNAND3X1_5 INVX1_56/Y NAND3X1_5/B NAND3X1_5/C gnd NAND3X1_5/Y vdd NAND3X1
XOAI21X1_112 INVX1_79/A INVX1_78/Y INVX4_3/A gnd OAI21X1_112/Y vdd OAI21X1
XOAI21X1_101 INVX1_67/A AOI22X1_7/Y NAND2X1_82/Y gnd MUX2X1_3/A vdd OAI21X1
XOAI21X1_134 INVX2_10/A INVX4_6/Y INVX4_3/A gnd INVX1_91/A vdd OAI21X1
XOAI21X1_189 OAI21X1_189/A AOI22X1_19/Y OAI21X1_187/Y gnd NOR2X1_109/B vdd OAI21X1
XOAI21X1_178 NOR2X1_98/Y AOI21X1_38/Y BUFX2_5/Y gnd OAI21X1_178/Y vdd OAI21X1
XOAI21X1_123 INVX1_82/A INVX1_85/A INVX4_6/A gnd OAI21X1_124/C vdd OAI21X1
XOAI21X1_156 NOR2X1_83/Y AOI22X1_17/Y INVX1_111/Y gnd NAND3X1_11/B vdd OAI21X1
XOAI21X1_145 NOR2X1_86/B AOI21X1_23/Y NAND2X1_111/A gnd OAI21X1_147/B vdd OAI21X1
XOAI21X1_167 BUFX4_11/Y AOI21X1_32/A OAI21X1_167/C gnd XNOR2X1_56/A vdd OAI21X1
XNAND2X1_195 NAND2X1_195/A AOI21X1_58/B gnd DFFPOSX1_75/D vdd NAND2X1
XNAND2X1_140 NAND2X1_140/A AOI22X1_19/C gnd XNOR2X1_60/B vdd NAND2X1
XNAND2X1_184 OAI21X1_236/C NAND2X1_183/Y gnd NOR2X1_134/B vdd NAND2X1
XNAND2X1_162 NOR2X1_117/Y NOR2X1_115/Y gnd AOI22X1_24/B vdd NAND2X1
XNAND2X1_151 NAND2X1_149/Y AOI22X1_22/C gnd NAND2X1_151/Y vdd NAND2X1
XNAND2X1_173 INVX1_110/Y INVX1_101/Y gnd AOI22X1_25/B vdd NAND2X1
XAOI22X1_18 INVX4_8/Y OR2X2_12/Y AOI22X1_18/C AOI22X1_18/D gnd NOR2X1_108/B vdd AOI22X1
XAOI22X1_29 INVX2_26/Y AOI22X1_29/B AOI22X1_29/C AOI22X1_29/D gnd AOI22X1_29/Y vdd
+ AOI22X1
XXNOR2X1_62 XNOR2X1_62/A INVX2_20/Y gnd XNOR2X1_62/Y vdd XNOR2X1
XXNOR2X1_84 XNOR2X1_84/A XNOR2X1_84/B gnd XNOR2X1_84/Y vdd XNOR2X1
XFILL_5_2 gnd vdd FILL
XXNOR2X1_95 INVX2_27/A XOR2X1_30/B gnd XNOR2X1_95/Y vdd XNOR2X1
XXNOR2X1_40 XNOR2X1_40/A NOR2X1_70/A gnd XNOR2X1_40/Y vdd XNOR2X1
XXNOR2X1_51 XNOR2X1_51/A INVX1_104/Y gnd XNOR2X1_51/Y vdd XNOR2X1
XXNOR2X1_73 XNOR2X1_73/A XOR2X1_23/Y gnd XNOR2X1_73/Y vdd XNOR2X1
XBUFX2_50 vdd gnd BUFX2_50/Y vdd BUFX2
XAOI21X1_40 AOI21X1_40/A INVX2_20/Y NOR2X1_103/Y gnd XNOR2X1_64/A vdd AOI21X1
XAOI21X1_62 XNOR2X1_95/Y INVX1_175/Y INVX1_173/A gnd AOI21X1_62/Y vdd AOI21X1
XFILL_9_0_1 gnd vdd FILL
XOAI21X1_2 INVX1_5/A OAI21X1_2/B BUFX2_3/Y gnd INVX1_7/A vdd OAI21X1
XAOI21X1_51 MUX2X1_10/A INVX1_151/Y INVX1_150/A gnd AOI21X1_51/Y vdd AOI21X1
XXOR2X1_5 XOR2X1_5/A XOR2X1_5/B gnd XOR2X1_5/Y vdd XOR2X1
XMUX2X1_6 MUX2X1_6/A MUX2X1_6/B INVX4_3/A gnd MUX2X1_6/Y vdd MUX2X1
XCLKBUF1_7 clk gnd CLKBUF1_7/Y vdd CLKBUF1
XDFFPOSX1_62 INVX1_97/A CLKBUF1_9/Y DFFPOSX1_62/D gnd vdd DFFPOSX1
XDFFPOSX1_95 INVX1_137/A CLKBUF1_7/Y XNOR2X1_62/Y gnd vdd DFFPOSX1
XDFFPOSX1_84 OAI22X1_9/D CLKBUF1_5/Y XNOR2X1_82/Y gnd vdd DFFPOSX1
XDFFPOSX1_40 BUFX2_23/A CLKBUF1_10/Y DFFPOSX1_40/D gnd vdd DFFPOSX1
XDFFPOSX1_73 INVX2_4/A CLKBUF1_6/Y XNOR2X1_81/Y gnd vdd DFFPOSX1
XDFFPOSX1_51 BUFX2_35/A DFFSR_2/CLK DFFPOSX1_51/D gnd vdd DFFPOSX1
XBUFX4_18 BUFX4_16/A gnd BUFX4_18/Y vdd BUFX4
XFILL_15_2_2 gnd vdd FILL
XBUFX4_3 BUFX4_3/A gnd BUFX4_3/Y vdd BUFX4
XXOR2X1_27 BUFX4_25/Y XOR2X1_27/B gnd XOR2X1_27/Y vdd XOR2X1
XXOR2X1_16 MUX2X1_9/Y XOR2X1_16/B gnd XOR2X1_16/Y vdd XOR2X1
XFILL_4_1_2 gnd vdd FILL
XINVX4_3 INVX4_3/A gnd INVX4_3/Y vdd INVX4
XFILL_12_0_2 gnd vdd FILL
XNAND3X1_6 INVX1_60/A NAND3X1_6/B NAND3X1_6/C gnd NAND3X1_6/Y vdd NAND3X1
XOAI21X1_135 INVX1_93/A OAI21X1_135/B INVX1_91/Y gnd NAND3X1_8/C vdd OAI21X1
XOAI21X1_124 INVX1_86/Y NAND2X1_92/Y OAI21X1_124/C gnd NAND2X1_97/B vdd OAI21X1
XOAI21X1_113 INVX4_3/A INVX1_80/Y OAI21X1_112/Y gnd XOR2X1_10/A vdd OAI21X1
XOAI21X1_102 INVX1_66/A INVX1_70/A BUFX4_13/Y gnd OAI21X1_102/Y vdd OAI21X1
XOAI21X1_146 INVX1_102/Y INVX1_101/Y AOI22X1_15/D gnd OAI21X1_146/Y vdd OAI21X1
XOAI21X1_179 BUFX2_5/Y OAI21X1_177/Y OAI21X1_178/Y gnd XNOR2X1_60/A vdd OAI21X1