* NGSPICE file created from noc_top.ext - technology: scmos

* Black-box entry subcircuit for FILL abstract view
.subckt FILL gnd vdd
.ends

* Black-box entry subcircuit for OAI21X1 abstract view
.subckt OAI21X1 A B C gnd Y vdd
.ends

* Black-box entry subcircuit for AND2X2 abstract view
.subckt AND2X2 A B gnd Y vdd
.ends

* Black-box entry subcircuit for MUX2X1 abstract view
.subckt MUX2X1 A B S gnd Y vdd
.ends

* Black-box entry subcircuit for DFFSR abstract view
.subckt DFFSR Q CLK R S D gnd vdd
.ends

* Black-box entry subcircuit for NAND2X1 abstract view
.subckt NAND2X1 A B gnd Y vdd
.ends

* Black-box entry subcircuit for OAI22X1 abstract view
.subckt OAI22X1 A B C D gnd Y vdd
.ends

* Black-box entry subcircuit for INVX2 abstract view
.subckt INVX2 A gnd Y vdd
.ends

* Black-box entry subcircuit for BUFX4 abstract view
.subckt BUFX4 A gnd Y vdd
.ends

* Black-box entry subcircuit for OR2X2 abstract view
.subckt OR2X2 A B gnd Y vdd
.ends

* Black-box entry subcircuit for XNOR2X1 abstract view
.subckt XNOR2X1 A B gnd Y vdd
.ends

* Black-box entry subcircuit for INVX1 abstract view
.subckt INVX1 A gnd Y vdd
.ends

* Black-box entry subcircuit for AOI22X1 abstract view
.subckt AOI22X1 A B C D gnd Y vdd
.ends

* Black-box entry subcircuit for INVX8 abstract view
.subckt INVX8 A gnd Y vdd
.ends

* Black-box entry subcircuit for CLKBUF1 abstract view
.subckt CLKBUF1 A gnd Y vdd
.ends

* Black-box entry subcircuit for DFFPOSX1 abstract view
.subckt DFFPOSX1 Q CLK D gnd vdd
.ends

* Black-box entry subcircuit for NAND3X1 abstract view
.subckt NAND3X1 A B C gnd Y vdd
.ends

* Black-box entry subcircuit for XOR2X1 abstract view
.subckt XOR2X1 A B gnd Y vdd
.ends

* Black-box entry subcircuit for INVX4 abstract view
.subckt INVX4 A gnd Y vdd
.ends

* Black-box entry subcircuit for BUFX2 abstract view
.subckt BUFX2 A gnd Y vdd
.ends

* Black-box entry subcircuit for AOI21X1 abstract view
.subckt AOI21X1 A B C gnd Y vdd
.ends

* Black-box entry subcircuit for NOR2X1 abstract view
.subckt NOR2X1 A B gnd Y vdd
.ends

.subckt noc_top vdd gnd clk rst dest[0] dest[1] dest[2] dest[3] dest[4] dest[5] dest[6]
+ dest[7] ext_data_in[0] ext_data_in[1] ext_data_in[2] ext_data_in[3] ext_data_in[4]
+ ext_data_in[5] ext_data_in[6] ext_data_in[7] ext_data_in[8] ext_data_in[9] ext_data_in[10]
+ ext_data_in[11] ext_data_in[12] ext_data_in[13] ext_data_in[14] ext_data_in[15]
+ ext_data_out[0] ext_data_out[1] ext_data_out[2] ext_data_out[3] ext_data_out[4]
+ ext_data_out[5] ext_data_out[6] ext_data_out[7] ext_data_out[8] ext_data_out[9]
+ ext_data_out[10] ext_data_out[11] ext_data_out[12] ext_data_out[13] ext_data_out[14]
+ ext_data_out[15] pe_busy[0] pe_busy[1] pe_busy[2] pe_busy[3]
XFILL_22_0_2 gnd vdd FILL
XFILL_5_1_2 gnd vdd FILL
XOAI21X1_371 INVX1_106/Y OR2X2_9/Y OAI21X1_371/C gnd DFFSR_85/D vdd OAI21X1
XOAI21X1_360 DFFSR_90/Q INVX1_100/Y NAND2X1_116/Y gnd DFFSR_79/D vdd OAI21X1
XOAI21X1_382 INVX1_115/Y OR2X2_10/Y OAI21X1_381/Y gnd DFFSR_96/D vdd OAI21X1
XAND2X2_5 INVX2_6/A INVX4_1/A gnd AND2X2_5/Y vdd AND2X2
XFILL_13_0_2 gnd vdd FILL
XOAI21X1_393 DFFSR_118/Q INVX1_123/Y NAND2X1_125/Y gnd DFFSR_106/D vdd OAI21X1
XMUX2X1_39 INVX1_45/A MUX2X1_51/A MUX2X1_37/S gnd MUX2X1_39/Y vdd MUX2X1
XMUX2X1_17 MUX2X1_3/A INVX1_18/A NOR2X1_7/Y gnd MUX2X1_17/Y vdd MUX2X1
XMUX2X1_28 MUX2X1_48/A MUX2X1_28/B MUX2X1_30/S gnd MUX2X1_28/Y vdd MUX2X1
XOAI21X1_190 BUFX4_63/Y BUFX4_16/Y MUX2X1_56/B gnd OAI21X1_191/C vdd OAI21X1
XDFFSR_9 DFFSR_9/Q DFFSR_3/CLK DFFSR_5/R vdd DFFSR_9/D gnd vdd DFFSR
XNAND2X1_21 MUX2X1_25/B NOR2X1_9/Y gnd NAND2X1_21/Y vdd NAND2X1
XNAND2X1_43 MUX2X1_48/B NOR2X1_19/Y gnd NAND2X1_43/Y vdd NAND2X1
XNAND2X1_32 DFFSR_101/Q DFFSR_98/Q gnd NAND2X1_32/Y vdd NAND2X1
XNAND2X1_10 INVX1_4/A INVX1_5/Y gnd MUX2X1_9/S vdd NAND2X1
XNAND2X1_54 NAND2X1_54/A NAND2X1_44/B gnd DFFSR_23/D vdd NAND2X1
XNAND2X1_76 NAND2X1_76/A NAND2X1_76/B gnd DFFSR_48/D vdd NAND2X1
XNAND2X1_87 DFFSR_129/Q DFFSR_125/Q gnd NAND2X1_87/Y vdd NAND2X1
XNAND2X1_65 NAND2X1_65/A NAND2X1_65/B gnd DFFSR_57/D vdd NAND2X1
XNAND2X1_98 NAND2X1_98/A NAND2X1_98/B gnd DFFSR_64/D vdd NAND2X1
XOAI22X1_3 OAI22X1_4/C OAI22X1_2/B OAI22X1_3/C OAI22X1_2/D gnd NOR2X1_45/A vdd OAI22X1
XFILL_20_1_0 gnd vdd FILL
XINVX2_12 INVX2_12/A gnd INVX2_12/Y vdd INVX2
XFILL_3_2_0 gnd vdd FILL
XOAI21X1_19 BUFX4_14/Y MUX2X1_6/Y OAI21X1_19/C gnd OAI21X1_19/Y vdd OAI21X1
XFILL_11_1_0 gnd vdd FILL
XFILL_19_2_0 gnd vdd FILL
XFILL_12_3 gnd vdd FILL
XBUFX4_63 BUFX4_61/A gnd BUFX4_63/Y vdd BUFX4
XBUFX4_96 BUFX4_92/A gnd BUFX4_96/Y vdd BUFX4
XBUFX4_85 INVX8_4/Y gnd DFFSR_66/R vdd BUFX4
XBUFX4_41 NOR2X1_4/Y gnd BUFX4_41/Y vdd BUFX4
XBUFX4_52 INVX8_1/Y gnd DFFSR_5/R vdd BUFX4
XBUFX4_74 DFFSR_1/Q gnd OR2X2_9/A vdd BUFX4
XBUFX4_30 INVX8_3/Y gnd DFFSR_52/R vdd BUFX4
XOR2X2_11 OR2X2_11/A BUFX2_24/A gnd OR2X2_11/Y vdd OR2X2
XOR2X2_4 OR2X2_4/A OR2X2_4/B gnd OR2X2_4/Y vdd OR2X2
XXNOR2X1_6 XNOR2X1_6/A INVX2_2/Y gnd DFFSR_32/D vdd XNOR2X1
XFILL_25_0_0 gnd vdd FILL
XFILL_0_0_0 gnd vdd FILL
XINVX1_6 INVX1_6/A gnd INVX1_6/Y vdd INVX1
XFILL_8_1_0 gnd vdd FILL
XFILL_16_0_0 gnd vdd FILL
XOAI21X1_383 BUFX4_34/Y OR2X2_10/B DFFSR_97/Q gnd OAI21X1_383/Y vdd OAI21X1
XOAI21X1_361 DFFSR_90/Q INVX1_101/Y OAI21X1_361/C gnd DFFSR_80/D vdd OAI21X1
XOAI21X1_372 OR2X2_9/A OR2X2_9/B DFFSR_86/Q gnd OAI21X1_373/C vdd OAI21X1
XOAI21X1_394 DFFSR_118/Q INVX1_124/Y OAI21X1_394/C gnd DFFSR_107/D vdd OAI21X1
XOAI21X1_350 OAI21X1_348/Y OAI21X1_350/B NOR2X1_36/Y gnd NAND2X1_108/B vdd OAI21X1
XMUX2X1_29 MUX2X1_29/A MUX2X1_29/B MUX2X1_30/S gnd MUX2X1_29/Y vdd MUX2X1
XMUX2X1_18 MUX2X1_4/A INVX1_20/A NOR2X1_7/Y gnd MUX2X1_18/Y vdd MUX2X1
XOAI21X1_191 BUFX4_96/Y MUX2X1_56/Y OAI21X1_191/C gnd OAI21X1_191/Y vdd OAI21X1
XOAI21X1_180 DFFSR_115/Q INVX1_51/Y NAND2X1_57/Y gnd MUX2X1_73/A vdd OAI21X1
XAOI22X1_1 INVX2_5/A AND2X2_5/Y BUFX4_90/Y AOI22X1_6/D gnd AOI22X1_1/Y vdd AOI22X1
XNAND2X1_77 MUX2X1_77/B NOR2X1_29/Y gnd NAND2X1_77/Y vdd NAND2X1
XNAND2X1_66 INVX1_52/A INVX1_53/Y gnd MUX2X1_64/S vdd NAND2X1
XNAND2X1_11 DFFSR_14/Q INVX2_1/Y gnd OAI21X1_73/B vdd NAND2X1
XNAND2X1_33 DFFSR_101/Q DFFSR_99/Q gnd NAND2X1_33/Y vdd NAND2X1
XNAND2X1_44 NAND2X1_44/A NAND2X1_44/B gnd DFFSR_27/D vdd NAND2X1
XNAND2X1_55 NAND2X1_55/A NAND2X1_46/B gnd DFFSR_24/D vdd NAND2X1
XNAND2X1_22 NAND2X1_22/A OAI21X1_79/Y gnd DFFSR_11/D vdd NAND2X1
XFILL_28_1 gnd vdd FILL
XNAND2X1_88 DFFSR_129/Q DFFSR_126/Q gnd NAND2X1_88/Y vdd NAND2X1
XNAND2X1_99 NAND2X1_99/A NOR2X1_39/Y gnd NAND2X1_99/Y vdd NAND2X1
XOAI22X1_4 INVX1_147/Y OAI22X1_2/B OAI22X1_4/C OAI22X1_2/D gnd NOR2X1_47/A vdd OAI22X1
XFILL_20_1_1 gnd vdd FILL
XINVX2_13 INVX2_13/A gnd INVX2_13/Y vdd INVX2
XFILL_3_2_1 gnd vdd FILL
XFILL_11_1_1 gnd vdd FILL
XFILL_19_2_1 gnd vdd FILL
XBUFX4_20 BUFX4_20/A gnd BUFX4_20/Y vdd BUFX4
XBUFX4_64 BUFX4_61/A gnd BUFX4_64/Y vdd BUFX4
XBUFX4_86 INVX8_4/Y gnd BUFX4_86/Y vdd BUFX4
XBUFX4_97 BUFX2_5/A gnd OR2X2_2/B vdd BUFX4
XBUFX4_42 NOR2X1_4/Y gnd BUFX4_42/Y vdd BUFX4
XBUFX4_31 BUFX4_35/A gnd BUFX4_31/Y vdd BUFX4
XBUFX4_75 DFFSR_1/Q gnd BUFX4_75/Y vdd BUFX4
XBUFX4_53 INVX8_1/Y gnd DFFSR_7/R vdd BUFX4
XFILL_10_1 gnd vdd FILL
XOR2X2_5 OR2X2_5/A OR2X2_5/B gnd OR2X2_5/Y vdd OR2X2
XOR2X2_12 OR2X2_12/A BUFX2_25/A gnd OR2X2_12/Y vdd OR2X2
XXNOR2X1_7 BUFX4_95/Y DFFSR_53/Q gnd DFFSR_53/D vdd XNOR2X1
XFILL_25_0_1 gnd vdd FILL
XFILL_0_0_1 gnd vdd FILL
XINVX1_7 INVX1_7/A gnd INVX1_7/Y vdd INVX1
XFILL_8_1_1 gnd vdd FILL
XFILL_16_0_1 gnd vdd FILL
XOAI21X1_351 INVX2_4/Y OR2X2_8/Y DFFSR_71/Q gnd OAI21X1_352/C vdd OAI21X1
XOAI21X1_340 INVX1_91/Y NAND2X1_95/Y NAND3X1_26/Y gnd OAI21X1_340/Y vdd OAI21X1
XOAI21X1_384 INVX1_116/Y OR2X2_10/Y OAI21X1_383/Y gnd DFFSR_97/D vdd OAI21X1
XOAI21X1_362 BUFX4_72/Y OR2X2_9/B DFFSR_81/Q gnd OAI21X1_362/Y vdd OAI21X1
XOAI21X1_373 INVX1_107/Y OR2X2_9/Y OAI21X1_373/C gnd DFFSR_86/D vdd OAI21X1
XOAI21X1_395 DFFSR_118/Q INVX1_125/Y NAND2X1_127/Y gnd DFFSR_108/D vdd OAI21X1
XMUX2X1_19 MUX2X1_5/A INVX1_22/A NOR2X1_7/Y gnd MUX2X1_19/Y vdd MUX2X1
XAOI22X1_2 DFFSR_68/Q AND2X2_5/Y DFFSR_30/Q AOI22X1_9/D gnd AOI22X1_2/Y vdd AOI22X1
XOAI21X1_192 DFFSR_115/Q INVX1_57/Y NAND2X1_61/Y gnd MUX2X1_77/A vdd OAI21X1
XOAI21X1_181 BUFX4_65/Y BUFX4_17/Y MUX2X1_53/B gnd OAI21X1_182/C vdd OAI21X1
XOAI21X1_170 INVX1_47/Y NAND2X1_39/Y NAND3X1_14/Y gnd OAI21X1_172/A vdd OAI21X1
XNAND2X1_34 DFFSR_101/Q DFFSR_100/Q gnd NAND2X1_34/Y vdd NAND2X1
XNAND2X1_45 MUX2X1_49/B NOR2X1_19/Y gnd NAND2X1_45/Y vdd NAND2X1
XNAND2X1_12 MUX2X1_21/B NOR2X1_9/Y gnd NAND2X1_12/Y vdd NAND2X1
XNAND2X1_23 MUX2X1_26/B NOR2X1_9/Y gnd NAND2X1_23/Y vdd NAND2X1
XNAND2X1_56 NAND2X1_56/A NAND2X1_48/B gnd DFFSR_25/D vdd NAND2X1
XNAND2X1_89 DFFSR_129/Q DFFSR_127/Q gnd NAND2X1_89/Y vdd NAND2X1
XNAND2X1_78 NAND2X1_78/A NAND2X1_78/B gnd DFFSR_49/D vdd NAND2X1
XNAND2X1_67 INVX1_62/A INVX2_3/Y gnd NAND2X1_67/Y vdd NAND2X1
XFILL_28_2 gnd vdd FILL
XAOI22X1_10 DFFSR_49/Q AND2X2_5/Y DFFSR_30/Q AOI22X1_6/D gnd AOI22X1_10/Y vdd AOI22X1
XOAI22X1_5 NOR2X1_42/A NOR2X1_42/B NOR2X1_45/A NOR2X1_45/B gnd NOR2X1_52/A vdd OAI22X1
XFILL_20_1_2 gnd vdd FILL
XFILL_3_2_2 gnd vdd FILL
XFILL_11_1_2 gnd vdd FILL
XFILL_19_2_2 gnd vdd FILL
XINVX8_1 rst gnd INVX8_1/Y vdd INVX8
XBUFX4_21 BUFX4_20/A gnd BUFX4_21/Y vdd BUFX4
XBUFX4_43 NOR2X1_4/Y gnd BUFX4_43/Y vdd BUFX4
XBUFX4_10 BUFX4_12/A gnd BUFX4_10/Y vdd BUFX4
XBUFX4_32 BUFX4_35/A gnd BUFX4_32/Y vdd BUFX4
XBUFX4_65 BUFX4_61/A gnd BUFX4_65/Y vdd BUFX4
XBUFX4_54 BUFX4_56/A gnd BUFX4_54/Y vdd BUFX4
XBUFX4_76 DFFSR_1/Q gnd INVX1_2/A vdd BUFX4
XBUFX4_98 BUFX2_5/A gnd INVX2_5/A vdd BUFX4
XBUFX4_87 INVX8_4/Y gnd DFFSR_76/R vdd BUFX4
XFILL_10_2 gnd vdd FILL
XXNOR2X1_8 XNOR2X1_8/A INVX1_52/Y gnd DFFSR_54/D vdd XNOR2X1
XOR2X2_13 BUFX2_26/A gnd gnd OR2X2_13/Y vdd OR2X2
XOR2X2_6 OR2X2_6/A OR2X2_6/B gnd OR2X2_6/Y vdd OR2X2
XFILL_25_0_2 gnd vdd FILL
XFILL_0_0_2 gnd vdd FILL
XINVX1_8 INVX1_8/A gnd INVX1_8/Y vdd INVX1
XFILL_8_1_2 gnd vdd FILL
XFILL_16_0_2 gnd vdd FILL
XFILL_9_1 gnd vdd FILL
XOAI21X1_341 INVX1_92/Y NAND2X1_97/Y NAND2X1_103/Y gnd OAI21X1_341/Y vdd OAI21X1
XOAI21X1_330 OAI21X1_328/Y OAI21X1_329/Y NOR2X1_36/Y gnd NAND2X1_98/B vdd OAI21X1
XOAI21X1_396 BUFX4_63/Y BUFX2_24/A DFFSR_109/Q gnd OAI21X1_396/Y vdd OAI21X1
XOAI21X1_352 OR2X2_8/Y NAND2X1_97/Y OAI21X1_352/C gnd DFFSR_71/D vdd OAI21X1
XOAI21X1_363 INVX1_102/Y OR2X2_9/Y OAI21X1_362/Y gnd DFFSR_81/D vdd OAI21X1
XOAI21X1_385 BUFX4_32/Y OR2X2_10/B DFFSR_98/Q gnd OAI21X1_386/C vdd OAI21X1
XOAI21X1_374 BUFX4_32/Y DFFSR_101/Q NAND2X1_118/Y gnd DFFSR_103/D vdd OAI21X1
XOAI21X1_182 BUFX4_93/Y MUX2X1_53/Y OAI21X1_182/C gnd DFFPOSX1_67/D vdd OAI21X1
XOAI21X1_171 INVX1_48/Y NAND2X1_41/Y NAND2X1_51/Y gnd OAI21X1_172/B vdd OAI21X1
XOAI21X1_160 OAI21X1_160/A OAI21X1_160/B XNOR2X1_6/A gnd NAND2X1_46/B vdd OAI21X1
XAOI22X1_3 DFFSR_11/Q AOI21X1_9/A DFFSR_49/Q AOI22X1_6/D gnd AOI22X1_3/Y vdd AOI22X1
XOAI21X1_193 OR2X2_11/A BUFX4_15/Y MUX2X1_57/B gnd OAI21X1_194/C vdd OAI21X1
XNAND2X1_57 DFFSR_115/Q DFFSR_109/Q gnd NAND2X1_57/Y vdd NAND2X1
XNAND2X1_68 MUX2X1_73/B NOR2X1_29/Y gnd NAND2X1_68/Y vdd NAND2X1
XNAND2X1_79 MUX2X1_78/B NOR2X1_29/Y gnd NAND2X1_79/Y vdd NAND2X1
XNAND2X1_35 OR2X2_3/A OR2X2_3/B gnd NAND2X1_35/Y vdd NAND2X1
XNAND2X1_13 INVX2_1/A INVX1_14/Y gnd OAI21X1_85/B vdd NAND2X1
XNAND2X1_24 NAND2X1_24/A OAI21X1_83/Y gnd DFFSR_12/D vdd NAND2X1
XNAND2X1_46 NAND2X1_46/A NAND2X1_46/B gnd DFFSR_28/D vdd NAND2X1
XAOI22X1_11 AOI21X1_9/A DFFSR_12/Q DFFSR_69/Q AND2X2_5/Y gnd AOI22X1_11/Y vdd AOI22X1
XFILL_23_1_0 gnd vdd FILL
XOAI22X1_6 OAI22X1_9/A OAI22X1_6/B INVX4_3/Y OAI22X1_6/D gnd OAI22X1_6/Y vdd OAI22X1
XFILL_6_2_0 gnd vdd FILL
XFILL_14_1_0 gnd vdd FILL
XFILL_3_0_0 gnd vdd FILL
XINVX8_2 rst gnd INVX8_2/Y vdd INVX8
XBUFX4_11 BUFX4_12/A gnd MUX2X1_7/S vdd BUFX4
XBUFX4_55 BUFX4_56/A gnd BUFX4_55/Y vdd BUFX4
XBUFX4_33 BUFX4_35/A gnd BUFX4_33/Y vdd BUFX4
XBUFX4_77 INVX8_2/Y gnd DFFSR_30/R vdd BUFX4
XBUFX4_44 NOR2X1_4/Y gnd BUFX4_44/Y vdd BUFX4
XBUFX4_66 INVX8_9/Y gnd BUFX4_66/Y vdd BUFX4
XBUFX4_22 BUFX4_20/A gnd OR2X2_12/A vdd BUFX4
XBUFX4_88 INVX8_4/Y gnd DFFSR_62/R vdd BUFX4
XBUFX4_99 BUFX2_5/A gnd NOR2X1_6/A vdd BUFX4
XFILL_19_0_0 gnd vdd FILL
XFILL_10_3 gnd vdd FILL
XOR2X2_14 BUFX4_9/Y gnd gnd OR2X2_14/Y vdd OR2X2
XOR2X2_7 OR2X2_7/A OR2X2_7/B gnd OR2X2_7/Y vdd OR2X2
XXNOR2X1_9 XNOR2X1_9/A INVX2_3/Y gnd DFFSR_51/D vdd XNOR2X1
XINVX1_9 INVX1_9/A gnd INVX1_9/Y vdd INVX1
XFILL_9_2 gnd vdd FILL
XOAI21X1_320 BUFX4_49/Y MUX2X1_101/Y OAI21X1_320/C gnd DFFPOSX1_75/D vdd OAI21X1
XOAI21X1_353 BUFX4_91/Y OR2X2_8/A DFFSR_60/Q gnd NAND2X1_109/A vdd OAI21X1
XOAI21X1_342 OAI21X1_340/Y OAI21X1_341/Y NOR2X1_36/Y gnd NAND2X1_112/B vdd OAI21X1
XOAI21X1_364 OR2X2_9/A OR2X2_9/B DFFSR_82/Q gnd OAI21X1_365/C vdd OAI21X1
XOAI21X1_331 BUFX2_4/Y OR2X2_8/A DFFSR_65/Q gnd NAND2X1_100/A vdd OAI21X1
XOAI21X1_397 INVX1_126/Y OR2X2_11/Y OAI21X1_396/Y gnd DFFSR_109/D vdd OAI21X1
XOAI21X1_375 DFFSR_104/Q INVX1_110/Y OAI21X1_375/C gnd DFFSR_91/D vdd OAI21X1
XOAI21X1_386 INVX1_117/Y OR2X2_10/Y OAI21X1_386/C gnd DFFSR_98/D vdd OAI21X1
XOAI21X1_194 BUFX4_94/Y MUX2X1_57/Y OAI21X1_194/C gnd DFFPOSX1_71/D vdd OAI21X1
XOAI21X1_183 DFFSR_115/Q INVX1_54/Y NAND2X1_58/Y gnd MUX2X1_74/A vdd OAI21X1
XOAI21X1_172 OAI21X1_172/A OAI21X1_172/B XNOR2X1_6/A gnd NAND2X1_52/B vdd OAI21X1
XOAI21X1_150 INVX1_36/Y NAND2X1_39/Y NAND3X1_9/Y gnd OAI21X1_152/A vdd OAI21X1
XOAI21X1_161 BUFX4_59/Y OR2X2_4/A DFFSR_29/Q gnd NAND2X1_48/A vdd OAI21X1
XAOI22X1_4 DFFSR_11/Q AND2X2_5/Y DFFSR_68/Q AOI22X1_6/D gnd AOI22X1_4/Y vdd AOI22X1
XNAND2X1_25 NAND2X1_25/A NAND2X1_14/B gnd DFFSR_3/D vdd NAND2X1
XNAND2X1_14 OAI21X1_60/Y NAND2X1_14/B gnd DFFSR_7/D vdd NAND2X1
XNAND2X1_58 DFFSR_115/Q DFFSR_110/Q gnd NAND2X1_58/Y vdd NAND2X1
XNAND2X1_36 AND2X2_2/B NAND2X1_35/Y gnd AOI21X1_2/A vdd NAND2X1
XNAND2X1_47 MUX2X1_50/B NOR2X1_19/Y gnd NAND2X1_47/Y vdd NAND2X1
XNAND2X1_69 INVX2_3/A INVX1_62/Y gnd NAND2X1_69/Y vdd NAND2X1
XAOI22X1_12 DFFSR_12/Q AND2X2_5/Y DFFSR_50/Q AOI22X1_9/D gnd AOI22X1_12/Y vdd AOI22X1
XFILL_23_1_1 gnd vdd FILL
XOAI22X1_7 OAI22X1_9/A OAI22X1_7/B INVX4_3/Y OAI22X1_7/D gnd DFFSR_167/D vdd OAI22X1
XFILL_6_2_1 gnd vdd FILL
XFILL_14_1_1 gnd vdd FILL
XFILL_26_1 gnd vdd FILL
XCLKBUF1_1 BUFX4_1/Y gnd CLKBUF1_1/Y vdd CLKBUF1
XFILL_3_0_1 gnd vdd FILL
XINVX8_3 rst gnd INVX8_3/Y vdd INVX8
XBUFX4_89 BUFX2_4/A gnd OR2X2_8/B vdd BUFX4
XBUFX4_34 BUFX4_35/A gnd BUFX4_34/Y vdd BUFX4
XBUFX4_78 INVX8_2/Y gnd BUFX4_78/Y vdd BUFX4
XBUFX4_56 BUFX4_56/A gnd BUFX4_56/Y vdd BUFX4
XBUFX4_12 BUFX4_12/A gnd BUFX4_12/Y vdd BUFX4
XBUFX4_67 INVX8_9/Y gnd BUFX4_67/Y vdd BUFX4
XBUFX4_45 BUFX4_46/A gnd BUFX4_45/Y vdd BUFX4
XFILL_19_0_1 gnd vdd FILL
XBUFX4_23 BUFX4_20/A gnd BUFX4_23/Y vdd BUFX4
XOR2X2_8 OR2X2_8/A OR2X2_8/B gnd OR2X2_8/Y vdd OR2X2
XFILL_9_3 gnd vdd FILL
XOAI21X1_398 BUFX4_64/Y BUFX2_24/A DFFSR_110/Q gnd OAI21X1_399/C vdd OAI21X1
XOAI21X1_310 BUFX4_49/Y MUX2X1_96/Y OAI21X1_309/Y gnd OAI21X1_310/Y vdd OAI21X1
XOAI21X1_376 DFFSR_104/Q INVX1_111/Y OAI21X1_376/C gnd DFFSR_92/D vdd OAI21X1
XOAI21X1_387 BUFX4_32/Y OR2X2_10/B DFFSR_99/Q gnd OAI21X1_387/Y vdd OAI21X1
XOAI21X1_365 INVX1_103/Y OR2X2_9/Y OAI21X1_365/C gnd DFFSR_82/D vdd OAI21X1
XOAI21X1_343 BUFX2_4/Y OR2X2_8/A DFFSR_68/Q gnd OAI21X1_343/Y vdd OAI21X1
XOAI21X1_354 BUFX2_4/Y OR2X2_8/A DFFSR_61/Q gnd NAND2X1_110/A vdd OAI21X1
XOAI21X1_332 INVX1_87/Y NAND2X1_95/Y NAND3X1_24/Y gnd OAI21X1_334/A vdd OAI21X1
XOAI21X1_321 BUFX4_20/Y BUFX4_81/Y MUX2X1_102/B gnd OAI21X1_321/Y vdd OAI21X1
XOAI21X1_184 BUFX4_64/Y BUFX4_17/Y MUX2X1_54/B gnd OAI21X1_185/C vdd OAI21X1
XOAI21X1_195 DFFSR_115/Q INVX1_58/Y NAND2X1_62/Y gnd MUX2X1_78/A vdd OAI21X1
XOAI21X1_173 INVX2_2/Y OR2X2_4/Y INVX1_38/A gnd OAI21X1_174/C vdd OAI21X1
XOAI21X1_140 BUFX4_38/Y MUX2X1_48/Y OAI21X1_140/C gnd DFFPOSX1_26/D vdd OAI21X1
XOAI21X1_162 INVX1_43/Y NAND2X1_39/Y NAND3X1_12/Y gnd OAI21X1_164/A vdd OAI21X1
XOAI21X1_151 INVX1_37/Y NAND2X1_41/Y NAND2X1_40/Y gnd OAI21X1_152/B vdd OAI21X1
XAOI22X1_5 INVX1_153/Y INVX1_154/Y AOI22X1_5/C NOR2X1_43/Y gnd AOI22X1_5/Y vdd AOI22X1
XNAND2X1_59 DFFSR_115/Q DFFSR_111/Q gnd NAND2X1_59/Y vdd NAND2X1
XNAND2X1_15 MUX2X1_22/B NOR2X1_9/Y gnd NAND2X1_15/Y vdd NAND2X1
XNAND2X1_37 NAND2X1_37/A NAND2X1_37/B gnd DFFSR_38/D vdd NAND2X1
XNAND2X1_26 OAI21X1_87/Y NAND2X1_16/B gnd DFFSR_4/D vdd NAND2X1
XNAND2X1_48 NAND2X1_48/A NAND2X1_48/B gnd DFFSR_29/D vdd NAND2X1
XAOI22X1_13 INVX1_153/Y INVX1_154/Y NAND3X1_48/Y NOR2X1_43/Y gnd AOI22X1_13/Y vdd
+ AOI22X1
XFILL_23_1_2 gnd vdd FILL
XOAI22X1_8 INVX4_3/Y OAI22X1_8/B OR2X2_14/Y OAI22X1_9/A gnd DFFSR_166/D vdd OAI22X1
XFILL_6_2_2 gnd vdd FILL
XFILL_14_1_2 gnd vdd FILL
XFILL_26_2 gnd vdd FILL
XFILL_19_1 gnd vdd FILL
XMUX2X1_1 MUX2X1_9/B MUX2X1_1/B NOR2X1_3/Y gnd MUX2X1_1/Y vdd MUX2X1
XCLKBUF1_2 BUFX4_1/Y gnd CLKBUF1_2/Y vdd CLKBUF1
XFILL_3_0_2 gnd vdd FILL
XINVX8_4 rst gnd INVX8_4/Y vdd INVX8
XDFFPOSX1_90 INVX1_95/A DFFSR_58/CLK OAI21X1_302/Y gnd vdd DFFPOSX1
XBUFX4_46 BUFX4_46/A gnd BUFX4_46/Y vdd BUFX4
XBUFX4_79 INVX8_2/Y gnd DFFSR_20/R vdd BUFX4
XBUFX4_13 BUFX4_12/A gnd BUFX4_13/Y vdd BUFX4
XBUFX4_57 BUFX4_56/A gnd BUFX4_57/Y vdd BUFX4
XBUFX4_35 BUFX4_35/A gnd OR2X2_10/A vdd BUFX4
XBUFX4_68 INVX8_9/Y gnd BUFX4_68/Y vdd BUFX4
XBUFX4_24 BUFX2_2/A gnd BUFX4_24/Y vdd BUFX4
XFILL_19_0_2 gnd vdd FILL
XOR2X2_9 OR2X2_9/A OR2X2_9/B gnd OR2X2_9/Y vdd OR2X2
XFILL_21_2_0 gnd vdd FILL
XFILL_12_2_0 gnd vdd FILL
XOAI21X1_399 INVX1_127/Y OR2X2_11/Y OAI21X1_399/C gnd DFFSR_110/D vdd OAI21X1
XOAI21X1_355 BUFX4_91/Y OR2X2_8/A DFFSR_62/Q gnd OAI21X1_355/Y vdd OAI21X1
XOAI21X1_366 BUFX4_72/Y OR2X2_9/B DFFSR_83/Q gnd OAI21X1_367/C vdd OAI21X1
XOAI21X1_388 INVX1_118/Y OR2X2_10/Y OAI21X1_387/Y gnd DFFSR_99/D vdd OAI21X1
XOAI21X1_377 DFFSR_104/Q INVX1_112/Y NAND2X1_121/Y gnd DFFSR_93/D vdd OAI21X1
XOAI21X1_300 BUFX4_45/Y MUX2X1_91/Y OAI21X1_300/C gnd DFFPOSX1_89/D vdd OAI21X1
XOAI21X1_311 BUFX4_19/Y BUFX4_84/Y INVX1_94/A gnd OAI21X1_312/C vdd OAI21X1
XOAI21X1_333 INVX1_88/Y NAND2X1_97/Y NAND2X1_99/Y gnd OAI21X1_333/Y vdd OAI21X1
XOAI21X1_344 INVX1_93/Y NAND2X1_95/Y NAND3X1_27/Y gnd OAI21X1_344/Y vdd OAI21X1
XOAI21X1_322 AND2X2_4/A MUX2X1_102/Y OAI21X1_321/Y gnd OAI21X1_322/Y vdd OAI21X1
XFILL_7_1 gnd vdd FILL
XNAND3X1_1 OR2X2_1/A OR2X2_1/B INVX1_1/Y gnd AOI21X1_1/B vdd NAND3X1
XFILL_26_1_0 gnd vdd FILL
XFILL_1_1_0 gnd vdd FILL
XOAI21X1_130 BUFX4_36/Y MUX2X1_43/Y OAI21X1_130/C gnd OAI21X1_130/Y vdd OAI21X1
XOAI21X1_185 BUFX4_93/Y MUX2X1_54/Y OAI21X1_185/C gnd DFFPOSX1_68/D vdd OAI21X1
XOAI21X1_141 BUFX4_31/Y BUFX4_54/Y MUX2X1_49/B gnd OAI21X1_141/Y vdd OAI21X1
XOAI21X1_174 OR2X2_4/Y NAND2X1_41/Y OAI21X1_174/C gnd DFFSR_33/D vdd OAI21X1
XOAI21X1_152 OAI21X1_152/A OAI21X1_152/B XNOR2X1_6/A gnd NAND2X1_42/B vdd OAI21X1
XOAI21X1_163 INVX1_44/Y NAND2X1_41/Y NAND2X1_47/Y gnd OAI21X1_164/B vdd OAI21X1
XAOI22X1_6 DFFSR_49/Q AOI21X1_9/A DFFSR_11/Q AOI22X1_6/D gnd AOI22X1_6/Y vdd AOI22X1
XOAI21X1_196 BUFX4_62/Y BUFX4_18/Y MUX2X1_58/B gnd OAI21X1_196/Y vdd OAI21X1
XNAND2X1_49 MUX2X1_51/B NOR2X1_19/Y gnd NAND2X1_49/Y vdd NAND2X1
XNAND2X1_27 NAND2X1_27/A NAND2X1_18/B gnd DFFSR_5/D vdd NAND2X1
XNAND2X1_38 DFFSR_35/Q INVX1_29/Y gnd MUX2X1_37/S vdd NAND2X1
XNAND2X1_16 NAND2X1_16/A NAND2X1_16/B gnd DFFSR_8/D vdd NAND2X1
XFILL_9_2_0 gnd vdd FILL
XNAND2X1_180 NAND2X1_179/Y NAND2X1_180/B gnd DFFSR_164/D vdd NAND2X1
XFILL_17_1_0 gnd vdd FILL
XAOI22X1_14 AOI21X1_9/A DFFSR_50/Q DFFSR_31/Q AND2X2_5/Y gnd NAND3X1_50/A vdd AOI22X1
XOAI22X1_9 OAI22X1_9/A OAI22X1_9/B INVX4_3/Y OAI22X1_9/D gnd OAI22X1_9/Y vdd OAI22X1
XFILL_26_3 gnd vdd FILL
XXOR2X1_1 XOR2X1_1/A OR2X2_1/B gnd DFFSR_17/D vdd XOR2X1
XFILL_6_0_0 gnd vdd FILL
XMUX2X1_2 MUX2X1_2/A MUX2X1_2/B NOR2X1_3/Y gnd MUX2X1_2/Y vdd MUX2X1
XCLKBUF1_3 BUFX4_3/Y gnd CLKBUF1_3/Y vdd CLKBUF1
XINVX8_5 rst gnd INVX8_5/Y vdd INVX8
XDFFPOSX1_91 MUX2X1_79/B CLKBUF1_8/Y DFFPOSX1_91/D gnd vdd DFFPOSX1
XBUFX4_14 BUFX4_12/A gnd BUFX4_14/Y vdd BUFX4
XDFFPOSX1_80 INVX1_88/A CLKBUF1_20/Y DFFPOSX1_80/D gnd vdd DFFPOSX1
XBUFX4_25 BUFX2_2/A gnd OR2X2_6/B vdd BUFX4
XBUFX4_36 BUFX4_40/A gnd BUFX4_36/Y vdd BUFX4
XBUFX4_58 BUFX2_3/A gnd BUFX4_58/Y vdd BUFX4
XBUFX4_69 INVX8_9/Y gnd BUFX4_69/Y vdd BUFX4
XBUFX4_47 BUFX4_46/A gnd AND2X2_4/A vdd BUFX4
XFILL_21_2_1 gnd vdd FILL
XFILL_12_2_1 gnd vdd FILL
XOAI21X1_301 BUFX4_20/Y BUFX4_83/Y INVX1_95/A gnd OAI21X1_301/Y vdd OAI21X1
XOAI21X1_323 BUFX4_19/Y BUFX4_83/Y MUX2X1_103/B gnd OAI21X1_323/Y vdd OAI21X1
XOAI21X1_312 BUFX4_48/Y MUX2X1_97/Y OAI21X1_312/C gnd DFFPOSX1_83/D vdd OAI21X1
XOAI21X1_356 BUFX4_91/Y OR2X2_8/A DFFSR_63/Q gnd OAI21X1_356/Y vdd OAI21X1
XOAI21X1_389 BUFX4_32/Y OR2X2_10/B DFFSR_100/Q gnd OAI21X1_390/C vdd OAI21X1
XOAI21X1_378 DFFSR_104/Q INVX1_113/Y OAI21X1_378/C gnd DFFSR_94/D vdd OAI21X1
XOAI21X1_367 INVX1_104/Y OR2X2_9/Y OAI21X1_367/C gnd DFFSR_83/D vdd OAI21X1
XOAI21X1_334 OAI21X1_334/A OAI21X1_333/Y NOR2X1_36/Y gnd OAI21X1_334/Y vdd OAI21X1
XOAI21X1_345 INVX1_94/Y NAND2X1_97/Y NAND2X1_105/Y gnd OAI21X1_345/Y vdd OAI21X1
XFILL_7_2 gnd vdd FILL
XNAND3X1_2 MUX2X1_1/B DFFSR_14/Q INVX2_1/A gnd NAND3X1_2/Y vdd NAND3X1
XFILL_26_1_1 gnd vdd FILL
XFILL_1_1_1 gnd vdd FILL
XOAI21X1_142 BUFX4_38/Y MUX2X1_49/Y OAI21X1_141/Y gnd OAI21X1_142/Y vdd OAI21X1
XOAI21X1_131 OR2X2_10/A BUFX4_56/Y INVX1_44/A gnd OAI21X1_131/Y vdd OAI21X1
XOAI21X1_164 OAI21X1_164/A OAI21X1_164/B XNOR2X1_6/A gnd NAND2X1_48/B vdd OAI21X1
XOAI21X1_120 BUFX4_40/Y MUX2X1_38/Y OAI21X1_120/C gnd OAI21X1_120/Y vdd OAI21X1
XOAI21X1_153 BUFX4_59/Y OR2X2_4/A DFFSR_27/Q gnd NAND2X1_44/A vdd OAI21X1
XAOI22X1_7 DFFSR_30/Q AND2X2_5/Y DFFSR_68/Q AOI22X1_9/D gnd AOI22X1_7/Y vdd AOI22X1
XOAI21X1_186 DFFSR_115/Q INVX1_55/Y NAND2X1_59/Y gnd MUX2X1_75/A vdd OAI21X1
XOAI21X1_175 BUFX2_3/Y OR2X2_4/A DFFSR_22/Q gnd NAND2X1_53/A vdd OAI21X1
XFILL_9_2_1 gnd vdd FILL
XOAI21X1_197 BUFX4_92/Y MUX2X1_58/Y OAI21X1_196/Y gnd DFFPOSX1_72/D vdd OAI21X1
XNAND2X1_17 MUX2X1_23/B NOR2X1_9/Y gnd NAND2X1_17/Y vdd NAND2X1
XNAND2X1_39 INVX1_38/A INVX2_2/Y gnd NAND2X1_39/Y vdd NAND2X1
XNAND2X1_28 OAI21X1_89/Y NAND2X1_28/B gnd DFFSR_6/D vdd NAND2X1
XNAND2X1_181 NAND3X1_71/Y NAND3X1_70/Y gnd OAI21X1_463/A vdd NAND2X1
XNAND2X1_170 INVX2_9/A INVX4_3/Y gnd NAND2X1_170/Y vdd NAND2X1
XFILL_17_1_1 gnd vdd FILL
XAOI22X1_15 AOI22X1_9/D DFFSR_69/Q DFFSR_12/Q AOI22X1_6/D gnd AOI22X1_15/Y vdd AOI22X1
XXOR2X1_2 OR2X2_1/A OR2X2_1/B gnd XOR2X1_2/Y vdd XOR2X1
XFILL_6_0_1 gnd vdd FILL
XMUX2X1_3 MUX2X1_3/A MUX2X1_3/B NOR2X1_3/Y gnd MUX2X1_3/Y vdd MUX2X1
XCLKBUF1_4 BUFX4_3/Y gnd CLKBUF1_4/Y vdd CLKBUF1
XINVX8_6 rst gnd INVX8_6/Y vdd INVX8
XDFFPOSX1_81 INVX1_90/A CLKBUF1_30/Y OAI21X1_308/Y gnd vdd DFFPOSX1
XDFFPOSX1_70 MUX2X1_56/B CLKBUF1_10/Y OAI21X1_191/Y gnd vdd DFFPOSX1
XBUFX4_15 BUFX4_15/A gnd BUFX4_15/Y vdd BUFX4
XDFFPOSX1_92 MUX2X1_80/B CLKBUF1_30/Y OAI21X1_274/Y gnd vdd DFFPOSX1
XBUFX4_48 BUFX4_46/A gnd BUFX4_48/Y vdd BUFX4
XBUFX4_37 BUFX4_40/A gnd BUFX4_37/Y vdd BUFX4
XBUFX4_59 BUFX2_3/A gnd BUFX4_59/Y vdd BUFX4
XBUFX4_26 BUFX2_2/A gnd BUFX4_26/Y vdd BUFX4
XFILL_21_2_2 gnd vdd FILL
XFILL_12_2_2 gnd vdd FILL
XOAI21X1_313 BUFX4_21/Y BUFX4_82/Y INVX1_96/A gnd OAI21X1_314/C vdd OAI21X1
XOAI21X1_335 OR2X2_8/B OR2X2_8/A DFFSR_66/Q gnd OAI21X1_335/Y vdd OAI21X1
XOAI21X1_302 BUFX4_45/Y MUX2X1_92/Y OAI21X1_301/Y gnd OAI21X1_302/Y vdd OAI21X1
XOAI21X1_324 BUFX4_45/Y MUX2X1_103/Y OAI21X1_323/Y gnd DFFPOSX1_77/D vdd OAI21X1
XOAI21X1_346 OAI21X1_344/Y OAI21X1_345/Y NOR2X1_36/Y gnd NAND2X1_106/B vdd OAI21X1
XOAI21X1_357 BUFX4_73/Y NOR2X1_4/B NAND2X1_113/Y gnd DFFSR_89/D vdd OAI21X1
XOAI21X1_379 OR2X2_10/A OR2X2_10/B DFFSR_95/Q gnd OAI21X1_379/Y vdd OAI21X1
XOAI21X1_368 OR2X2_9/A OR2X2_9/B DFFSR_84/Q gnd OAI21X1_369/C vdd OAI21X1
XDFFSR_170 NOR2X1_4/A CLKBUF1_31/Y BUFX4_66/Y vdd DFFSR_170/D gnd vdd DFFSR
XFILL_7_3 gnd vdd FILL
XNAND3X1_3 MUX2X1_2/B DFFSR_14/Q INVX2_1/A gnd NAND3X1_3/Y vdd NAND3X1
XFILL_26_1_2 gnd vdd FILL
XFILL_1_1_2 gnd vdd FILL
XOAI21X1_187 BUFX4_65/Y BUFX4_17/Y MUX2X1_55/B gnd OAI21X1_187/Y vdd OAI21X1
XOAI21X1_110 AND2X2_2/Y AOI21X1_2/Y OR2X2_4/Y gnd NAND2X1_37/B vdd OAI21X1
XOAI21X1_176 OR2X2_4/B OR2X2_4/A DFFSR_23/Q gnd NAND2X1_54/A vdd OAI21X1
XOAI21X1_154 INVX1_39/Y NAND2X1_39/Y NAND3X1_10/Y gnd OAI21X1_156/A vdd OAI21X1
XOAI21X1_121 BUFX4_31/Y BUFX4_54/Y INVX1_45/A gnd OAI21X1_121/Y vdd OAI21X1
XOAI21X1_132 BUFX4_36/Y MUX2X1_44/Y OAI21X1_131/Y gnd OAI21X1_132/Y vdd OAI21X1
XOAI21X1_143 OR2X2_10/A BUFX4_56/Y MUX2X1_50/B gnd OAI21X1_144/C vdd OAI21X1
XOAI21X1_165 BUFX4_58/Y OR2X2_4/A DFFSR_30/Q gnd NAND2X1_50/A vdd OAI21X1
XAOI22X1_8 INVX1_151/Y INVX1_152/Y AOI22X1_8/C AOI22X1_8/D gnd AOI22X1_8/Y vdd AOI22X1
XOAI21X1_198 OR2X2_6/B OR2X2_6/A BUFX4_95/Y gnd XOR2X1_5/A vdd OAI21X1
XFILL_9_2_2 gnd vdd FILL
XNAND2X1_18 NAND2X1_18/A NAND2X1_18/B gnd DFFSR_9/D vdd NAND2X1
XNAND2X1_29 DFFSR_101/Q DFFSR_95/Q gnd NAND2X1_29/Y vdd NAND2X1
XNAND2X1_160 INVX2_7/A INVX4_3/Y gnd OAI22X1_9/A vdd NAND2X1
XNAND2X1_182 INVX2_13/A INVX4_3/Y gnd NAND2X1_182/Y vdd NAND2X1
XNAND2X1_171 NAND2X1_170/Y NAND2X1_171/B gnd DFFSR_161/D vdd NAND2X1
XFILL_17_1_2 gnd vdd FILL
XAOI22X1_16 INVX1_151/Y INVX1_152/Y NAND3X1_50/Y NAND3X1_49/Y gnd AOI22X1_16/Y vdd
+ AOI22X1
XFILL_6_0_2 gnd vdd FILL
XXOR2X1_3 XOR2X1_3/A OR2X2_3/B gnd DFFSR_36/D vdd XOR2X1
XMUX2X1_4 MUX2X1_4/A MUX2X1_4/B NOR2X1_3/Y gnd MUX2X1_4/Y vdd MUX2X1
XCLKBUF1_5 BUFX4_6/Y gnd CLKBUF1_5/Y vdd CLKBUF1
XFILL_17_1 gnd vdd FILL
XFILL_24_2_0 gnd vdd FILL
XINVX8_7 rst gnd INVX8_7/Y vdd INVX8
XDFFPOSX1_71 MUX2X1_57/B CLKBUF1_27/Y DFFPOSX1_71/D gnd vdd DFFPOSX1
XDFFPOSX1_82 INVX1_92/A CLKBUF1_30/Y OAI21X1_310/Y gnd vdd DFFPOSX1
XDFFPOSX1_60 INVX1_72/A CLKBUF1_7/Y DFFPOSX1_60/D gnd vdd DFFPOSX1
XDFFPOSX1_93 MUX2X1_81/B CLKBUF1_11/Y DFFPOSX1_93/D gnd vdd DFFPOSX1
XBUFX4_16 BUFX4_15/A gnd BUFX4_16/Y vdd BUFX4
XBUFX4_49 BUFX4_46/A gnd BUFX4_49/Y vdd BUFX4
XBUFX4_38 BUFX4_40/A gnd BUFX4_38/Y vdd BUFX4
XBUFX4_27 INVX8_3/Y gnd BUFX4_27/Y vdd BUFX4
XFILL_15_2_0 gnd vdd FILL
XOAI21X1_314 BUFX4_46/Y MUX2X1_98/Y OAI21X1_314/C gnd OAI21X1_314/Y vdd OAI21X1
XOAI21X1_325 BUFX4_23/Y BUFX4_84/Y MUX2X1_104/B gnd OAI21X1_326/C vdd OAI21X1
XOAI21X1_336 INVX1_89/Y NAND2X1_95/Y NAND3X1_25/Y gnd OAI21X1_336/Y vdd OAI21X1
XOAI21X1_358 DFFSR_90/Q INVX1_98/Y OAI21X1_358/C gnd DFFSR_77/D vdd OAI21X1
XOAI21X1_369 INVX1_105/Y OR2X2_9/Y OAI21X1_369/C gnd DFFSR_84/D vdd OAI21X1
XOAI21X1_347 OR2X2_8/B OR2X2_8/A DFFSR_69/Q gnd OAI21X1_347/Y vdd OAI21X1
XOAI21X1_303 OR2X2_12/A BUFX4_84/Y INVX1_85/A gnd OAI21X1_303/Y vdd OAI21X1
XFILL_21_0_0 gnd vdd FILL
XDFFSR_171 INVX1_159/A CLKBUF1_4/Y BUFX4_71/Y vdd DFFSR_171/D gnd vdd DFFSR
XBUFX4_1 clk gnd BUFX4_1/Y vdd BUFX4
XDFFSR_160 INVX2_8/A DFFSR_65/CLK BUFX4_66/Y vdd DFFSR_160/D gnd vdd DFFSR
XFILL_4_1_0 gnd vdd FILL
XFILL_12_0_0 gnd vdd FILL
XINVX4_1 INVX4_1/A gnd INVX4_1/Y vdd INVX4
XNAND3X1_4 MUX2X1_3/B DFFSR_14/Q INVX2_1/A gnd NAND3X1_4/Y vdd NAND3X1
XOAI21X1_188 BUFX4_96/Y MUX2X1_55/Y OAI21X1_187/Y gnd DFFPOSX1_69/D vdd OAI21X1
XOAI21X1_155 INVX1_40/Y NAND2X1_41/Y NAND2X1_43/Y gnd OAI21X1_156/B vdd OAI21X1
XOAI21X1_122 BUFX4_39/Y MUX2X1_39/Y OAI21X1_121/Y gnd DFFPOSX1_41/D vdd OAI21X1
XOAI21X1_166 INVX1_45/Y NAND2X1_39/Y NAND3X1_13/Y gnd OAI21X1_166/Y vdd OAI21X1
XOAI21X1_111 OR2X2_3/A OR2X2_3/B AND2X2_2/B gnd INVX1_35/A vdd OAI21X1
XOAI21X1_133 BUFX4_34/Y BUFX4_55/Y INVX1_46/A gnd OAI21X1_134/C vdd OAI21X1
XOAI21X1_177 BUFX4_59/Y OR2X2_4/A DFFSR_24/Q gnd NAND2X1_55/A vdd OAI21X1
XOAI21X1_144 BUFX4_40/Y MUX2X1_50/Y OAI21X1_144/C gnd DFFPOSX1_28/D vdd OAI21X1
XOAI21X1_100 DFFSR_101/Q INVX1_32/Y NAND2X1_32/Y gnd MUX2X1_30/A vdd OAI21X1
XAOI22X1_9 DFFSR_68/Q AOI21X1_9/A DFFSR_11/Q AOI22X1_9/D gnd AOI22X1_9/Y vdd AOI22X1
XOAI21X1_199 AND2X2_3/Y AOI21X1_3/Y OR2X2_6/Y gnd NAND2X1_65/B vdd OAI21X1
XNAND2X1_19 MUX2X1_24/B NOR2X1_9/Y gnd OAI21X1_74/C vdd NAND2X1
XNAND2X1_161 NOR2X1_4/A DFFSR_159/D gnd NAND2X1_161/Y vdd NAND2X1
XNAND2X1_150 DFFSR_49/Q AOI22X1_9/D gnd NAND3X1_42/B vdd NAND2X1
XNAND2X1_172 NAND3X1_62/Y NAND3X1_61/Y gnd OAI21X1_457/A vdd NAND2X1
XNAND2X1_183 NAND2X1_182/Y OAI21X1_463/Y gnd DFFSR_165/D vdd NAND2X1
XAOI22X1_17 DFFSR_69/Q AOI21X1_9/A DFFSR_31/Q AOI22X1_6/D gnd AOI22X1_17/Y vdd AOI22X1
XFILL_5_1 gnd vdd FILL
XOAI21X1_1 NOR2X1_4/A NOR2X1_4/B INVX1_2/Y gnd BUFX4_12/A vdd OAI21X1
XFILL_9_0_0 gnd vdd FILL
XMUX2X1_5 MUX2X1_5/A MUX2X1_5/B NOR2X1_3/Y gnd MUX2X1_5/Y vdd MUX2X1
XXOR2X1_4 OR2X2_3/A OR2X2_3/B gnd XOR2X1_4/Y vdd XOR2X1
XCLKBUF1_6 BUFX4_5/Y gnd CLKBUF1_6/Y vdd CLKBUF1
XFILL_24_2_1 gnd vdd FILL
XINVX8_8 rst gnd INVX8_8/Y vdd INVX8
XDFFPOSX1_50 MUX2X1_74/B CLKBUF1_27/Y DFFPOSX1_50/D gnd vdd DFFPOSX1
XDFFPOSX1_94 MUX2X1_82/B CLKBUF1_11/Y DFFPOSX1_94/D gnd vdd DFFPOSX1
XDFFPOSX1_61 INVX1_60/A CLKBUF1_6/Y OAI21X1_203/Y gnd vdd DFFPOSX1
XDFFPOSX1_83 INVX1_94/A CLKBUF1_8/Y DFFPOSX1_83/D gnd vdd DFFPOSX1
XDFFPOSX1_72 MUX2X1_58/B CLKBUF1_7/Y DFFPOSX1_72/D gnd vdd DFFPOSX1
XBUFX4_17 BUFX4_15/A gnd BUFX4_17/Y vdd BUFX4
XBUFX4_39 BUFX4_40/A gnd BUFX4_39/Y vdd BUFX4
XBUFX4_28 INVX8_3/Y gnd BUFX4_28/Y vdd BUFX4
XFILL_15_2_1 gnd vdd FILL
XOAI21X1_337 INVX1_90/Y NAND2X1_97/Y NAND2X1_101/Y gnd OAI21X1_338/B vdd OAI21X1
XOAI21X1_326 BUFX4_49/Y MUX2X1_104/Y OAI21X1_326/C gnd OAI21X1_326/Y vdd OAI21X1
XOAI21X1_359 DFFSR_90/Q INVX1_99/Y OAI21X1_359/C gnd DFFSR_78/D vdd OAI21X1
XDFFSR_161 INVX2_9/A CLKBUF1_4/Y BUFX4_69/Y vdd DFFSR_161/D gnd vdd DFFSR
XDFFSR_150 INVX1_56/A DFFSR_64/CLK BUFX4_68/Y vdd DFFSR_150/D gnd vdd DFFSR
XOAI21X1_315 OR2X2_12/A BUFX4_84/Y MUX2X1_99/B gnd OAI21X1_315/Y vdd OAI21X1
XFILL_21_0_1 gnd vdd FILL
XOAI21X1_348 INVX1_95/Y NAND2X1_95/Y NAND3X1_28/Y gnd OAI21X1_348/Y vdd OAI21X1
XOAI21X1_304 BUFX4_49/Y MUX2X1_93/Y OAI21X1_303/Y gnd DFFPOSX1_79/D vdd OAI21X1
XBUFX4_2 clk gnd BUFX4_2/Y vdd BUFX4
XDFFSR_172 NOR2X1_24/A CLKBUF1_7/Y BUFX4_68/Y vdd DFFSR_172/D gnd vdd DFFSR
XFILL_4_1_1 gnd vdd FILL
XFILL_12_0_1 gnd vdd FILL
XINVX4_2 rst gnd INVX4_2/Y vdd INVX4
XNAND3X1_5 MUX2X1_4/B DFFSR_14/Q INVX2_1/A gnd NAND3X1_5/Y vdd NAND3X1
XOAI21X1_112 INVX1_35/Y DFFSR_21/D XNOR2X1_6/A gnd NAND2X1_37/A vdd OAI21X1
XOAI21X1_101 OR2X2_10/A BUFX4_56/Y MUX2X1_30/B gnd OAI21X1_102/C vdd OAI21X1
XOAI21X1_189 DFFSR_115/Q INVX1_56/Y NAND2X1_60/Y gnd MUX2X1_76/A vdd OAI21X1
XOAI21X1_167 INVX1_46/Y NAND2X1_41/Y NAND2X1_49/Y gnd OAI21X1_168/B vdd OAI21X1
XOAI21X1_156 OAI21X1_156/A OAI21X1_156/B XNOR2X1_6/A gnd NAND2X1_44/B vdd OAI21X1
XOAI21X1_145 BUFX4_31/Y BUFX4_55/Y MUX2X1_51/B gnd OAI21X1_145/Y vdd OAI21X1