*SPICE netlist created from BLIF module noc_top by blif2BSpice
.include /usr/local/share/qflow/tech/osu035/osu035_stdcells.sp
.subckt noc_top vdd gnd clk rst ext_data_in[0] ext_data_in[1] ext_data_in[2] ext_data_in[3] ext_data_in[4] ext_data_in[5] ext_data_in[6] ext_data_in[7] ext_data_in[8] ext_data_in[9] ext_data_in[10] ext_data_in[11] ext_data_in[12] ext_data_in[13] ext_data_in[14] ext_data_in[15] ext_data_out[0] ext_data_out[1] ext_data_out[2] ext_data_out[3] ext_data_out[4] ext_data_out[5] ext_data_out[6] ext_data_out[7] ext_data_out[8] ext_data_out[9] ext_data_out[10] ext_data_out[11] ext_data_out[12] ext_data_out[13] ext_data_out[14] ext_data_out[15] pe_busy[0] pe_busy[1] pe_busy[2] pe_busy[3] 
XBUFX4_1 vdd gnd clk clk_hier0_bF$buf5 BUFX4
XBUFX4_2 vdd gnd clk clk_hier0_bF$buf4 BUFX4
XBUFX4_3 vdd gnd clk clk_hier0_bF$buf3 BUFX4
XBUFX4_4 vdd gnd clk clk_hier0_bF$buf2 BUFX4
XBUFX4_5 vdd gnd clk clk_hier0_bF$buf1 BUFX4
XBUFX4_6 vdd gnd clk clk_hier0_bF$buf0 BUFX4
XBUFX2_1 vdd gnd arb_source arb_source_bF$buf3 BUFX2
XBUFX4_7 vdd gnd arb_source arb_source_bF$buf2 BUFX4
XBUFX4_8 vdd gnd arb_source arb_source_bF$buf1 BUFX4
XBUFX4_9 vdd gnd arb_source arb_source_bF$buf0 BUFX4
XBUFX4_10 vdd gnd _16_ _16__bF$buf4 BUFX4
XBUFX4_11 vdd gnd _16_ _16__bF$buf3 BUFX4
XBUFX4_12 vdd gnd _16_ _16__bF$buf2 BUFX4
XBUFX4_13 vdd gnd _16_ _16__bF$buf1 BUFX4
XBUFX4_14 vdd gnd _16_ _16__bF$buf0 BUFX4
XBUFX4_15 vdd gnd _350_ _350__bF$buf3 BUFX4
XBUFX4_16 vdd gnd _350_ _350__bF$buf2 BUFX4
XBUFX4_17 vdd gnd _350_ _350__bF$buf1 BUFX4
XBUFX4_18 vdd gnd _350_ _350__bF$buf0 BUFX4
XBUFX4_19 vdd gnd FIFO_INST[3].fifo_inst.full FIFO_INST[3].fifo_inst.full_bF$buf4 BUFX4
XBUFX4_20 vdd gnd FIFO_INST[3].fifo_inst.full FIFO_INST[3].fifo_inst.full_bF$buf3 BUFX4
XBUFX4_21 vdd gnd FIFO_INST[3].fifo_inst.full FIFO_INST[3].fifo_inst.full_bF$buf2 BUFX4
XBUFX4_22 vdd gnd FIFO_INST[3].fifo_inst.full FIFO_INST[3].fifo_inst.full_bF$buf1 BUFX4
XBUFX4_23 vdd gnd FIFO_INST[3].fifo_inst.full FIFO_INST[3].fifo_inst.full_bF$buf0 BUFX4
XBUFX4_24 vdd gnd FIFO_INST[2].fifo_inst.empty FIFO_INST[2].fifo_inst.empty_bF$buf3 BUFX4
XBUFX4_25 vdd gnd FIFO_INST[2].fifo_inst.empty FIFO_INST[2].fifo_inst.empty_bF$buf2 BUFX4
XBUFX2_2 vdd gnd FIFO_INST[2].fifo_inst.empty FIFO_INST[2].fifo_inst.empty_bF$buf1 BUFX2
XBUFX4_26 vdd gnd FIFO_INST[2].fifo_inst.empty FIFO_INST[2].fifo_inst.empty_bF$buf0 BUFX4
XCLKBUF1_1 clk_hier0_bF$buf2 vdd gnd clk_bF$buf41 CLKBUF1
XCLKBUF1_2 clk_hier0_bF$buf2 vdd gnd clk_bF$buf40 CLKBUF1
XCLKBUF1_3 clk_hier0_bF$buf5 vdd gnd clk_bF$buf39 CLKBUF1
XCLKBUF1_4 clk_hier0_bF$buf2 vdd gnd clk_bF$buf38 CLKBUF1
XCLKBUF1_5 clk_hier0_bF$buf1 vdd gnd clk_bF$buf37 CLKBUF1
XCLKBUF1_6 clk_hier0_bF$buf2 vdd gnd clk_bF$buf36 CLKBUF1
XCLKBUF1_7 clk_hier0_bF$buf4 vdd gnd clk_bF$buf35 CLKBUF1
XCLKBUF1_8 clk_hier0_bF$buf2 vdd gnd clk_bF$buf34 CLKBUF1
XCLKBUF1_9 clk_hier0_bF$buf5 vdd gnd clk_bF$buf33 CLKBUF1
XCLKBUF1_10 clk_hier0_bF$buf2 vdd gnd clk_bF$buf32 CLKBUF1
XCLKBUF1_11 clk_hier0_bF$buf5 vdd gnd clk_bF$buf31 CLKBUF1
XCLKBUF1_12 clk_hier0_bF$buf0 vdd gnd clk_bF$buf30 CLKBUF1
XCLKBUF1_13 clk_hier0_bF$buf3 vdd gnd clk_bF$buf29 CLKBUF1
XCLKBUF1_14 clk_hier0_bF$buf4 vdd gnd clk_bF$buf28 CLKBUF1
XCLKBUF1_15 clk_hier0_bF$buf3 vdd gnd clk_bF$buf27 CLKBUF1
XCLKBUF1_16 clk_hier0_bF$buf3 vdd gnd clk_bF$buf26 CLKBUF1
XCLKBUF1_17 clk_hier0_bF$buf2 vdd gnd clk_bF$buf25 CLKBUF1
XCLKBUF1_18 clk_hier0_bF$buf1 vdd gnd clk_bF$buf24 CLKBUF1
XCLKBUF1_19 clk_hier0_bF$buf0 vdd gnd clk_bF$buf23 CLKBUF1
XCLKBUF1_20 clk_hier0_bF$buf3 vdd gnd clk_bF$buf22 CLKBUF1
XCLKBUF1_21 clk_hier0_bF$buf1 vdd gnd clk_bF$buf21 CLKBUF1
XCLKBUF1_22 clk_hier0_bF$buf1 vdd gnd clk_bF$buf20 CLKBUF1
XCLKBUF1_23 clk_hier0_bF$buf4 vdd gnd clk_bF$buf19 CLKBUF1
XCLKBUF1_24 clk_hier0_bF$buf5 vdd gnd clk_bF$buf18 CLKBUF1
XCLKBUF1_25 clk_hier0_bF$buf4 vdd gnd clk_bF$buf17 CLKBUF1
XCLKBUF1_26 clk_hier0_bF$buf1 vdd gnd clk_bF$buf16 CLKBUF1
XCLKBUF1_27 clk_hier0_bF$buf3 vdd gnd clk_bF$buf15 CLKBUF1
XCLKBUF1_28 clk_hier0_bF$buf0 vdd gnd clk_bF$buf14 CLKBUF1
XCLKBUF1_29 clk_hier0_bF$buf0 vdd gnd clk_bF$buf13 CLKBUF1
XCLKBUF1_30 clk_hier0_bF$buf0 vdd gnd clk_bF$buf12 CLKBUF1
XCLKBUF1_31 clk_hier0_bF$buf5 vdd gnd clk_bF$buf11 CLKBUF1
XCLKBUF1_32 clk_hier0_bF$buf4 vdd gnd clk_bF$buf10 CLKBUF1
XCLKBUF1_33 clk_hier0_bF$buf4 vdd gnd clk_bF$buf9 CLKBUF1
XCLKBUF1_34 clk_hier0_bF$buf0 vdd gnd clk_bF$buf8 CLKBUF1
XCLKBUF1_35 clk_hier0_bF$buf0 vdd gnd clk_bF$buf7 CLKBUF1
XCLKBUF1_36 clk_hier0_bF$buf3 vdd gnd clk_bF$buf6 CLKBUF1
XCLKBUF1_37 clk_hier0_bF$buf4 vdd gnd clk_bF$buf5 CLKBUF1
XCLKBUF1_38 clk_hier0_bF$buf5 vdd gnd clk_bF$buf4 CLKBUF1
XCLKBUF1_39 clk_hier0_bF$buf1 vdd gnd clk_bF$buf3 CLKBUF1
XCLKBUF1_40 clk_hier0_bF$buf5 vdd gnd clk_bF$buf2 CLKBUF1
XCLKBUF1_41 clk_hier0_bF$buf1 vdd gnd clk_bF$buf1 CLKBUF1
XCLKBUF1_42 clk_hier0_bF$buf3 vdd gnd clk_bF$buf0 CLKBUF1
XBUFX4_27 vdd gnd _338_ _338__bF$buf3 BUFX4
XBUFX4_28 vdd gnd _338_ _338__bF$buf2 BUFX4
XBUFX4_29 vdd gnd _338_ _338__bF$buf1 BUFX4
XBUFX4_30 vdd gnd _338_ _338__bF$buf0 BUFX4
XBUFX4_31 vdd gnd FIFO_INST[1].fifo_inst.full FIFO_INST[1].fifo_inst.full_bF$buf4 BUFX4
XBUFX4_32 vdd gnd FIFO_INST[1].fifo_inst.full FIFO_INST[1].fifo_inst.full_bF$buf3 BUFX4
XBUFX4_33 vdd gnd FIFO_INST[1].fifo_inst.full FIFO_INST[1].fifo_inst.full_bF$buf2 BUFX4
XBUFX4_34 vdd gnd FIFO_INST[1].fifo_inst.full FIFO_INST[1].fifo_inst.full_bF$buf1 BUFX4
XBUFX4_35 vdd gnd FIFO_INST[1].fifo_inst.full FIFO_INST[1].fifo_inst.full_bF$buf0 BUFX4
XBUFX4_36 vdd gnd _179_ _179__bF$buf4 BUFX4
XBUFX4_37 vdd gnd _179_ _179__bF$buf3 BUFX4
XBUFX4_38 vdd gnd _179_ _179__bF$buf2 BUFX4
XBUFX4_39 vdd gnd _179_ _179__bF$buf1 BUFX4
XBUFX4_40 vdd gnd _179_ _179__bF$buf0 BUFX4
XBUFX4_41 vdd gnd _24_ _24__bF$buf3 BUFX4
XBUFX4_42 vdd gnd _24_ _24__bF$buf2 BUFX4
XBUFX4_43 vdd gnd _24_ _24__bF$buf1 BUFX4
XBUFX4_44 vdd gnd _24_ _24__bF$buf0 BUFX4
XBUFX4_45 vdd gnd _505_ _505__bF$buf4 BUFX4
XBUFX4_46 vdd gnd _505_ _505__bF$buf3 BUFX4
XBUFX4_47 vdd gnd _505_ _505__bF$buf2 BUFX4
XBUFX4_48 vdd gnd _505_ _505__bF$buf1 BUFX4
XBUFX4_49 vdd gnd _505_ _505__bF$buf0 BUFX4
XBUFX4_50 vdd gnd _12_ _12__bF$buf3 BUFX4
XBUFX4_51 vdd gnd _12_ _12__bF$buf2 BUFX4
XBUFX4_52 vdd gnd _12_ _12__bF$buf1 BUFX4
XBUFX4_53 vdd gnd _12_ _12__bF$buf0 BUFX4
XBUFX4_54 vdd gnd _187_ _187__bF$buf3 BUFX4
XBUFX4_55 vdd gnd _187_ _187__bF$buf2 BUFX4
XBUFX4_56 vdd gnd _187_ _187__bF$buf1 BUFX4
XBUFX4_57 vdd gnd _187_ _187__bF$buf0 BUFX4
XBUFX4_58 vdd gnd FIFO_INST[1].fifo_inst.empty FIFO_INST[1].fifo_inst.empty_bF$buf3 BUFX4
XBUFX4_59 vdd gnd FIFO_INST[1].fifo_inst.empty FIFO_INST[1].fifo_inst.empty_bF$buf2 BUFX4
XBUFX2_3 vdd gnd FIFO_INST[1].fifo_inst.empty FIFO_INST[1].fifo_inst.empty_bF$buf1 BUFX2
XBUFX4_60 vdd gnd FIFO_INST[1].fifo_inst.empty FIFO_INST[1].fifo_inst.empty_bF$buf0 BUFX4
XBUFX4_61 vdd gnd FIFO_INST[2].fifo_inst.full FIFO_INST[2].fifo_inst.full_bF$buf4 BUFX4
XBUFX4_62 vdd gnd FIFO_INST[2].fifo_inst.full FIFO_INST[2].fifo_inst.full_bF$buf3 BUFX4
XBUFX4_63 vdd gnd FIFO_INST[2].fifo_inst.full FIFO_INST[2].fifo_inst.full_bF$buf2 BUFX4
XBUFX4_64 vdd gnd FIFO_INST[2].fifo_inst.full FIFO_INST[2].fifo_inst.full_bF$buf1 BUFX4
XBUFX4_65 vdd gnd FIFO_INST[2].fifo_inst.full FIFO_INST[2].fifo_inst.full_bF$buf0 BUFX4
XBUFX4_66 vdd gnd _904_ _904__bF$buf5 BUFX4
XBUFX4_67 vdd gnd _904_ _904__bF$buf4 BUFX4
XBUFX4_68 vdd gnd _904_ _904__bF$buf3 BUFX4
XBUFX4_69 vdd gnd _904_ _904__bF$buf2 BUFX4
XBUFX4_70 vdd gnd _904_ _904__bF$buf1 BUFX4
XBUFX4_71 vdd gnd _904_ _904__bF$buf0 BUFX4
XBUFX4_72 vdd gnd FIFO_INST[0].fifo_inst.full FIFO_INST[0].fifo_inst.full_bF$buf4 BUFX4
XBUFX4_73 vdd gnd FIFO_INST[0].fifo_inst.full FIFO_INST[0].fifo_inst.full_bF$buf3 BUFX4
XBUFX4_74 vdd gnd FIFO_INST[0].fifo_inst.full FIFO_INST[0].fifo_inst.full_bF$buf2 BUFX4
XBUFX4_75 vdd gnd FIFO_INST[0].fifo_inst.full FIFO_INST[0].fifo_inst.full_bF$buf1 BUFX4
XBUFX4_76 vdd gnd FIFO_INST[0].fifo_inst.full FIFO_INST[0].fifo_inst.full_bF$buf0 BUFX4
XBUFX4_77 vdd gnd _175_ _175__bF$buf3 BUFX4
XBUFX4_78 vdd gnd _175_ _175__bF$buf2 BUFX4
XBUFX4_79 vdd gnd _175_ _175__bF$buf1 BUFX4
XBUFX4_80 vdd gnd _175_ _175__bF$buf0 BUFX4
XBUFX4_81 vdd gnd _513_ _513__bF$buf3 BUFX4
XBUFX4_82 vdd gnd _513_ _513__bF$buf2 BUFX4
XBUFX4_83 vdd gnd _513_ _513__bF$buf1 BUFX4
XBUFX4_84 vdd gnd _513_ _513__bF$buf0 BUFX4
XBUFX4_85 vdd gnd _501_ _501__bF$buf3 BUFX4
XBUFX4_86 vdd gnd _501_ _501__bF$buf2 BUFX4
XBUFX4_87 vdd gnd _501_ _501__bF$buf1 BUFX4
XBUFX4_88 vdd gnd _501_ _501__bF$buf0 BUFX4
XBUFX4_89 vdd gnd FIFO_INST[3].fifo_inst.empty FIFO_INST[3].fifo_inst.empty_bF$buf3 BUFX4
XBUFX4_90 vdd gnd FIFO_INST[3].fifo_inst.empty FIFO_INST[3].fifo_inst.empty_bF$buf2 BUFX4
XBUFX4_91 vdd gnd FIFO_INST[3].fifo_inst.empty FIFO_INST[3].fifo_inst.empty_bF$buf1 BUFX4
XBUFX2_4 vdd gnd FIFO_INST[3].fifo_inst.empty FIFO_INST[3].fifo_inst.empty_bF$buf0 BUFX2
XBUFX4_92 vdd gnd _342_ _342__bF$buf4 BUFX4
XBUFX4_93 vdd gnd _342_ _342__bF$buf3 BUFX4
XBUFX4_94 vdd gnd _342_ _342__bF$buf2 BUFX4
XBUFX4_95 vdd gnd _342_ _342__bF$buf1 BUFX4
XBUFX4_96 vdd gnd _342_ _342__bF$buf0 BUFX4
XBUFX4_97 vdd gnd FIFO_INST[0].fifo_inst.empty FIFO_INST[0].fifo_inst.empty_bF$buf3 BUFX4
XBUFX2_5 vdd gnd FIFO_INST[0].fifo_inst.empty FIFO_INST[0].fifo_inst.empty_bF$buf2 BUFX2
XBUFX4_98 vdd gnd FIFO_INST[0].fifo_inst.empty FIFO_INST[0].fifo_inst.empty_bF$buf1 BUFX4
XBUFX4_99 vdd gnd FIFO_INST[0].fifo_inst.empty FIFO_INST[0].fifo_inst.empty_bF$buf0 BUFX4
XBUFX2_6 vdd gnd _0_[0] ext_data_out[0] BUFX2
XBUFX2_7 vdd gnd _0_[1] ext_data_out[1] BUFX2
XBUFX2_8 vdd gnd _0_[2] ext_data_out[2] BUFX2
XBUFX2_9 vdd gnd _0_[3] ext_data_out[3] BUFX2
XBUFX2_10 vdd gnd _0_[4] ext_data_out[4] BUFX2
XBUFX2_11 vdd gnd _0_[5] ext_data_out[5] BUFX2
XBUFX2_12 vdd gnd _0_[6] ext_data_out[6] BUFX2
XBUFX2_13 vdd gnd _0_[7] ext_data_out[7] BUFX2
XBUFX2_14 vdd gnd _0_[8] ext_data_out[8] BUFX2
XBUFX2_15 vdd gnd _0_[9] ext_data_out[9] BUFX2
XBUFX2_16 vdd gnd _0_[10] ext_data_out[10] BUFX2
XBUFX2_17 vdd gnd _0_[11] ext_data_out[11] BUFX2
XBUFX2_18 vdd gnd _0_[12] ext_data_out[12] BUFX2
XBUFX2_19 vdd gnd _0_[13] ext_data_out[13] BUFX2
XBUFX2_20 vdd gnd _0_[14] ext_data_out[14] BUFX2
XBUFX2_21 vdd gnd _0_[15] ext_data_out[15] BUFX2
XBUFX2_22 vdd gnd PE_INST[0].pe.busy pe_busy[0] BUFX2
XBUFX2_23 vdd gnd PE_INST[1].pe.busy pe_busy[1] BUFX2
XBUFX2_24 vdd gnd PE_INST[2].pe.busy pe_busy[2] BUFX2
XBUFX2_25 vdd gnd PE_INST[3].pe.busy pe_busy[3] BUFX2
XOR2X2_1 _13_ FIFO_INST[0].fifo_inst.count[0] vdd gnd FIFO_INST[0].fifo_inst.count[1] OR2X2
XNOR2X1_1 vdd _13_ gnd _2_ FIFO_INST[0].fifo_inst.count[2] NOR2X1
XINVX1_1 FIFO_INST[0].fifo_inst.count[2] _14_ vdd gnd INVX1
XNOR2X1_2 vdd _13_ gnd _3_ _14_ NOR2X1
XINVX1_2 FIFO_INST[0].fifo_inst.full_bF$buf1 _15_ vdd gnd INVX1
XOAI21X1_1 gnd vdd FIFO_INST[0].fifo_inst.router_wr_en FIFO_INST[0].fifo_inst.pe_wr_en _16_ _15_ OAI21X1
XINVX1_3 FIFO_INST[0].fifo_inst.router_data_in[0] _17_ vdd gnd INVX1
XNAND2X1_1 vdd _18_ gnd FIFO_INST[0].fifo_inst.pe_wr_en FIFO_INST[0].fifo_inst.pe_data_in[0] NAND2X1
XOAI21X1_2 gnd vdd FIFO_INST[0].fifo_inst.pe_wr_en _17_ _19_ _18_ OAI21X1
XINVX1_4 FIFO_INST[0].fifo_inst.wr_ptr[1] _20_ vdd gnd INVX1
XINVX1_5 FIFO_INST[0].fifo_inst.wr_ptr[0] _21_ vdd gnd INVX1
XNOR2X1_3 vdd _21_ gnd _22_ _20_ NOR2X1
XMUX2X1_1 _22_ vdd gnd _23_ _19_ FIFO_INST[0].fifo_inst.mem[3][0] MUX2X1
XNOR2X1_4 vdd FIFO_INST[0].fifo_inst.pe_wr_en gnd _24_ FIFO_INST[0].fifo_inst.router_wr_en NOR2X1
XOAI21X1_3 gnd vdd FIFO_INST[0].fifo_inst.full_bF$buf2 _24__bF$buf2 _25_ FIFO_INST[0].fifo_inst.mem[3][0] OAI21X1
XOAI21X1_4 gnd vdd _16__bF$buf0 _23_ _7_[0] _25_ OAI21X1
XINVX1_6 FIFO_INST[0].fifo_inst.router_data_in[1] _26_ vdd gnd INVX1
XNAND2X1_2 vdd _27_ gnd FIFO_INST[0].fifo_inst.pe_wr_en FIFO_INST[0].fifo_inst.pe_data_in[1] NAND2X1
XOAI21X1_5 gnd vdd FIFO_INST[0].fifo_inst.pe_wr_en _26_ _28_ _27_ OAI21X1
XMUX2X1_2 _22_ vdd gnd _29_ _28_ FIFO_INST[0].fifo_inst.mem[3][1] MUX2X1
XOAI21X1_6 gnd vdd FIFO_INST[0].fifo_inst.full_bF$buf4 _24__bF$buf0 _30_ FIFO_INST[0].fifo_inst.mem[3][1] OAI21X1
XOAI21X1_7 gnd vdd _16__bF$buf4 _29_ _7_[1] _30_ OAI21X1
XINVX1_7 FIFO_INST[0].fifo_inst.router_data_in[2] _31_ vdd gnd INVX1
XNAND2X1_3 vdd _32_ gnd FIFO_INST[0].fifo_inst.pe_wr_en FIFO_INST[0].fifo_inst.pe_data_in[2] NAND2X1
XOAI21X1_8 gnd vdd FIFO_INST[0].fifo_inst.pe_wr_en _31_ _33_ _32_ OAI21X1
XMUX2X1_3 _22_ vdd gnd _34_ _33_ FIFO_INST[0].fifo_inst.mem[3][2] MUX2X1
XOAI21X1_9 gnd vdd FIFO_INST[0].fifo_inst.full_bF$buf0 _24__bF$buf1 _35_ FIFO_INST[0].fifo_inst.mem[3][2] OAI21X1
XOAI21X1_10 gnd vdd _16__bF$buf3 _34_ _7_[2] _35_ OAI21X1
XINVX1_8 FIFO_INST[0].fifo_inst.router_data_in[3] _36_ vdd gnd INVX1
XNAND2X1_4 vdd _37_ gnd FIFO_INST[0].fifo_inst.pe_wr_en FIFO_INST[0].fifo_inst.pe_data_in[3] NAND2X1
XOAI21X1_11 gnd vdd FIFO_INST[0].fifo_inst.pe_wr_en _36_ _38_ _37_ OAI21X1
XMUX2X1_4 _22_ vdd gnd _39_ _38_ FIFO_INST[0].fifo_inst.mem[3][3] MUX2X1
XOAI21X1_12 gnd vdd FIFO_INST[0].fifo_inst.full_bF$buf2 _24__bF$buf2 _40_ FIFO_INST[0].fifo_inst.mem[3][3] OAI21X1
XOAI21X1_13 gnd vdd _16__bF$buf0 _39_ _7_[3] _40_ OAI21X1
XINVX1_9 FIFO_INST[0].fifo_inst.router_data_in[4] _41_ vdd gnd INVX1
XNAND2X1_5 vdd _42_ gnd FIFO_INST[0].fifo_inst.pe_wr_en FIFO_INST[0].fifo_inst.pe_data_in[4] NAND2X1
XOAI21X1_14 gnd vdd FIFO_INST[0].fifo_inst.pe_wr_en _41_ _43_ _42_ OAI21X1
XMUX2X1_5 _22_ vdd gnd _44_ _43_ FIFO_INST[0].fifo_inst.mem[3][4] MUX2X1
XOAI21X1_15 gnd vdd FIFO_INST[0].fifo_inst.full_bF$buf1 _24__bF$buf3 _45_ FIFO_INST[0].fifo_inst.mem[3][4] OAI21X1
XOAI21X1_16 gnd vdd _16__bF$buf1 _44_ _7_[4] _45_ OAI21X1
XINVX1_10 FIFO_INST[0].fifo_inst.router_data_in[5] _46_ vdd gnd INVX1
XNAND2X1_6 vdd _47_ gnd FIFO_INST[0].fifo_inst.pe_wr_en FIFO_INST[0].fifo_inst.pe_data_in[5] NAND2X1
XOAI21X1_17 gnd vdd FIFO_INST[0].fifo_inst.pe_wr_en _46_ _48_ _47_ OAI21X1
XMUX2X1_6 _22_ vdd gnd _49_ _48_ FIFO_INST[0].fifo_inst.mem[3][5] MUX2X1
XOAI21X1_18 gnd vdd FIFO_INST[0].fifo_inst.full_bF$buf3 _24__bF$buf0 _50_ FIFO_INST[0].fifo_inst.mem[3][5] OAI21X1
XOAI21X1_19 gnd vdd _16__bF$buf4 _49_ _7_[5] _50_ OAI21X1
XNOR2X1_5 vdd FIFO_INST[0].fifo_inst.pe_rd_en gnd _51_ FIFO_INST[0].fifo_inst.router_rd_en NOR2X1
XOAI21X1_20 gnd vdd FIFO_INST[0].fifo_inst.empty_bF$buf3 _51_ _52_ _16__bF$buf2 OAI21X1
XXOR2X1_1 _1_[0] vdd FIFO_INST[0].fifo_inst.count[0] _52_ gnd XOR2X1
XOR2X2_2 _53_ FIFO_INST[0].fifo_inst.empty_bF$buf0 vdd gnd _51_ OR2X2
XXOR2X1_2 _54_ vdd FIFO_INST[0].fifo_inst.count[0] FIFO_INST[0].fifo_inst.count[1] gnd XOR2X1
XMUX2X1_7 _16__bF$buf1 vdd gnd _55_ FIFO_INST[0].fifo_inst.count[1] _54_ MUX2X1
XMUX2X1_8 _53_ vdd gnd _1_[1] _55_ _54_ MUX2X1
XNAND3X1_1 FIFO_INST[0].fifo_inst.count[0] vdd gnd FIFO_INST[0].fifo_inst.count[1] _14_ _56_ NAND3X1
XNAND2X1_7 vdd _57_ gnd FIFO_INST[0].fifo_inst.count[1] FIFO_INST[0].fifo_inst.count[0] NAND2X1
XNAND2X1_8 vdd _58_ gnd FIFO_INST[0].fifo_inst.count[2] _57_ NAND2X1
XAOI21X1_1 gnd vdd _58_ _56_ _59_ _16__bF$buf2 AOI21X1
XAND2X2_1 vdd gnd _16__bF$buf2 FIFO_INST[0].fifo_inst.count[2] _60_ AND2X2
XOAI21X1_21 gnd vdd _60_ _59_ _61_ _53_ OAI21X1
XNOR2X1_6 vdd _51_ gnd _62_ FIFO_INST[0].fifo_inst.empty_bF$buf0 NOR2X1
XOAI21X1_22 gnd vdd FIFO_INST[0].fifo_inst.count[1] FIFO_INST[0].fifo_inst.count[0] _63_ FIFO_INST[0].fifo_inst.count[2] OAI21X1
XINVX1_11 _63_ _64_ vdd gnd INVX1
XOAI21X1_23 gnd vdd _64_ _2_ _65_ _62_ OAI21X1
XNAND2X1_9 vdd _1_[2] gnd _65_ _61_ NAND2X1
XNAND2X1_10 vdd _66_ gnd FIFO_INST[0].fifo_inst.wr_ptr[1] _21_ NAND2X1
XMUX2X1_9 _66_ vdd gnd _67_ FIFO_INST[0].fifo_inst.mem[2][0] _19_ MUX2X1
XOAI21X1_24 gnd vdd FIFO_INST[0].fifo_inst.full_bF$buf0 _24__bF$buf1 _68_ FIFO_INST[0].fifo_inst.mem[2][0] OAI21X1
XOAI21X1_25 gnd vdd _16__bF$buf3 _67_ _6_[0] _68_ OAI21X1
XMUX2X1_10 _66_ vdd gnd _69_ FIFO_INST[0].fifo_inst.mem[2][1] _28_ MUX2X1
XOAI21X1_26 gnd vdd FIFO_INST[0].fifo_inst.full_bF$buf3 _24__bF$buf0 _70_ FIFO_INST[0].fifo_inst.mem[2][1] OAI21X1
XOAI21X1_27 gnd vdd _16__bF$buf4 _69_ _6_[1] _70_ OAI21X1
XMUX2X1_11 _66_ vdd gnd _71_ FIFO_INST[0].fifo_inst.mem[2][2] _33_ MUX2X1
XOAI21X1_28 gnd vdd FIFO_INST[0].fifo_inst.full_bF$buf0 _24__bF$buf1 _72_ FIFO_INST[0].fifo_inst.mem[2][2] OAI21X1
XOAI21X1_29 gnd vdd _16__bF$buf3 _71_ _6_[2] _72_ OAI21X1
XMUX2X1_12 _66_ vdd gnd _73_ FIFO_INST[0].fifo_inst.mem[2][3] _38_ MUX2X1
XOAI21X1_30 gnd vdd FIFO_INST[0].fifo_inst.full_bF$buf3 _24__bF$buf2 _74_ FIFO_INST[0].fifo_inst.mem[2][3] OAI21X1
XOAI21X1_31 gnd vdd _16__bF$buf0 _73_ _6_[3] _74_ OAI21X1
XMUX2X1_13 _66_ vdd gnd _75_ FIFO_INST[0].fifo_inst.mem[2][4] _43_ MUX2X1
XOAI21X1_32 gnd vdd FIFO_INST[0].fifo_inst.full_bF$buf1 _24__bF$buf3 _76_ FIFO_INST[0].fifo_inst.mem[2][4] OAI21X1
XOAI21X1_33 gnd vdd _16__bF$buf1 _75_ _6_[4] _76_ OAI21X1
XMUX2X1_14 _66_ vdd gnd _77_ FIFO_INST[0].fifo_inst.mem[2][5] _48_ MUX2X1
XOAI21X1_34 gnd vdd FIFO_INST[0].fifo_inst.full_bF$buf4 _24__bF$buf0 _78_ FIFO_INST[0].fifo_inst.mem[2][5] OAI21X1
XOAI21X1_35 gnd vdd _16__bF$buf4 _77_ _6_[5] _78_ OAI21X1
XNOR2X1_7 vdd _21_ gnd _79_ FIFO_INST[0].fifo_inst.wr_ptr[1] NOR2X1
XMUX2X1_15 _79_ vdd gnd _80_ _19_ FIFO_INST[0].fifo_inst.mem[1][0] MUX2X1
XOAI21X1_36 gnd vdd FIFO_INST[0].fifo_inst.full_bF$buf0 _24__bF$buf1 _81_ FIFO_INST[0].fifo_inst.mem[1][0] OAI21X1
XOAI21X1_37 gnd vdd _16__bF$buf3 _80_ _5_[0] _81_ OAI21X1
XMUX2X1_16 _79_ vdd gnd _82_ _28_ FIFO_INST[0].fifo_inst.mem[1][1] MUX2X1
XOAI21X1_38 gnd vdd FIFO_INST[0].fifo_inst.full_bF$buf1 _24__bF$buf3 _83_ FIFO_INST[0].fifo_inst.mem[1][1] OAI21X1
XOAI21X1_39 gnd vdd _16__bF$buf2 _82_ _5_[1] _83_ OAI21X1
XMUX2X1_17 _79_ vdd gnd _84_ _33_ FIFO_INST[0].fifo_inst.mem[1][2] MUX2X1
XOAI21X1_40 gnd vdd FIFO_INST[0].fifo_inst.full_bF$buf3 _24__bF$buf3 _85_ FIFO_INST[0].fifo_inst.mem[1][2] OAI21X1
XOAI21X1_41 gnd vdd _16__bF$buf1 _84_ _5_[2] _85_ OAI21X1
XMUX2X1_18 _79_ vdd gnd _86_ _38_ FIFO_INST[0].fifo_inst.mem[1][3] MUX2X1
XOAI21X1_42 gnd vdd FIFO_INST[0].fifo_inst.full_bF$buf2 _24__bF$buf2 _87_ FIFO_INST[0].fifo_inst.mem[1][3] OAI21X1
XOAI21X1_43 gnd vdd _16__bF$buf0 _86_ _5_[3] _87_ OAI21X1
XMUX2X1_19 _79_ vdd gnd _88_ _43_ FIFO_INST[0].fifo_inst.mem[1][4] MUX2X1
XOAI21X1_44 gnd vdd FIFO_INST[0].fifo_inst.full_bF$buf1 _24__bF$buf3 _89_ FIFO_INST[0].fifo_inst.mem[1][4] OAI21X1
XOAI21X1_45 gnd vdd _16__bF$buf1 _88_ _5_[4] _89_ OAI21X1
XMUX2X1_20 _79_ vdd gnd _90_ _48_ FIFO_INST[0].fifo_inst.mem[1][5] MUX2X1
XOAI21X1_46 gnd vdd FIFO_INST[0].fifo_inst.full_bF$buf3 _24__bF$buf0 _91_ FIFO_INST[0].fifo_inst.mem[1][5] OAI21X1
XOAI21X1_47 gnd vdd _16__bF$buf4 _90_ _5_[5] _91_ OAI21X1
XNOR2X1_8 vdd FIFO_INST[0].fifo_inst.wr_ptr[0] gnd _92_ FIFO_INST[0].fifo_inst.wr_ptr[1] NOR2X1
XMUX2X1_21 _92_ vdd gnd _93_ _19_ FIFO_INST[0].fifo_inst.mem[0][0] MUX2X1
XOAI21X1_48 gnd vdd FIFO_INST[0].fifo_inst.full_bF$buf2 _24__bF$buf2 _94_ FIFO_INST[0].fifo_inst.mem[0][0] OAI21X1
XOAI21X1_49 gnd vdd _16__bF$buf0 _93_ _4_[0] _94_ OAI21X1
XMUX2X1_22 _92_ vdd gnd _95_ _28_ FIFO_INST[0].fifo_inst.mem[0][1] MUX2X1
XOAI21X1_50 gnd vdd FIFO_INST[0].fifo_inst.full_bF$buf0 _24__bF$buf1 _96_ FIFO_INST[0].fifo_inst.mem[0][1] OAI21X1
XOAI21X1_51 gnd vdd _16__bF$buf2 _95_ _4_[1] _96_ OAI21X1
XMUX2X1_23 _92_ vdd gnd _97_ _33_ FIFO_INST[0].fifo_inst.mem[0][2] MUX2X1
XOAI21X1_52 gnd vdd FIFO_INST[0].fifo_inst.full_bF$buf3 _24__bF$buf0 _98_ FIFO_INST[0].fifo_inst.mem[0][2] OAI21X1
XOAI21X1_53 gnd vdd _16__bF$buf4 _97_ _4_[2] _98_ OAI21X1
XMUX2X1_24 _92_ vdd gnd _99_ _38_ FIFO_INST[0].fifo_inst.mem[0][3] MUX2X1
XOAI21X1_54 gnd vdd FIFO_INST[0].fifo_inst.full_bF$buf2 _24__bF$buf2 _100_ FIFO_INST[0].fifo_inst.mem[0][3] OAI21X1
XOAI21X1_55 gnd vdd _16__bF$buf0 _99_ _4_[3] _100_ OAI21X1
XMUX2X1_25 _92_ vdd gnd _101_ _43_ FIFO_INST[0].fifo_inst.mem[0][4] MUX2X1
XOAI21X1_56 gnd vdd FIFO_INST[0].fifo_inst.full_bF$buf1 _24__bF$buf3 _102_ FIFO_INST[0].fifo_inst.mem[0][4] OAI21X1
XOAI21X1_57 gnd vdd _16__bF$buf1 _101_ _4_[4] _102_ OAI21X1
XMUX2X1_26 _92_ vdd gnd _103_ _48_ FIFO_INST[0].fifo_inst.mem[0][5] MUX2X1
XOAI21X1_58 gnd vdd FIFO_INST[0].fifo_inst.full_bF$buf3 _24__bF$buf1 _104_ FIFO_INST[0].fifo_inst.mem[0][5] OAI21X1
XOAI21X1_59 gnd vdd _16__bF$buf2 _103_ _4_[5] _104_ OAI21X1
XOAI21X1_60 gnd vdd FIFO_INST[0].fifo_inst.empty_bF$buf2 _51_ _105_ FIFO_INST[0].fifo_inst.router_data_out[0] OAI21X1
XINVX1_12 FIFO_INST[0].fifo_inst.mem[2][0] _106_ vdd gnd INVX1
XINVX2_1 vdd gnd _107_ FIFO_INST[0].fifo_inst.rd_ptr[0] INVX2
XNAND2X1_11 vdd _108_ gnd FIFO_INST[0].fifo_inst.rd_ptr[1] _107_ NAND2X1
XNAND3X1_2 FIFO_INST[0].fifo_inst.rd_ptr[1] vdd gnd FIFO_INST[0].fifo_inst.mem[3][0] FIFO_INST[0].fifo_inst.rd_ptr[0] _109_ NAND3X1
XOAI21X1_61 gnd vdd _106_ _108_ _110_ _109_ OAI21X1
XINVX1_13 FIFO_INST[0].fifo_inst.mem[1][0] _111_ vdd gnd INVX1
XNOR2X1_9 vdd FIFO_INST[0].fifo_inst.rd_ptr[0] gnd _112_ FIFO_INST[0].fifo_inst.rd_ptr[1] NOR2X1
XNAND2X1_12 vdd _113_ gnd FIFO_INST[0].fifo_inst.mem[0][0] _112_ NAND2X1
XINVX1_14 FIFO_INST[0].fifo_inst.rd_ptr[1] _114_ vdd gnd INVX1
XNAND2X1_13 vdd _115_ gnd FIFO_INST[0].fifo_inst.rd_ptr[0] _114_ NAND2X1
XOAI21X1_62 gnd vdd _111_ _115_ _116_ _113_ OAI21X1
XOAI21X1_63 gnd vdd _110_ _116_ _117_ _62_ OAI21X1
XNAND2X1_14 vdd _10_[0] gnd _105_ _117_ NAND2X1
XOAI21X1_64 gnd vdd FIFO_INST[0].fifo_inst.empty_bF$buf2 _51_ _118_ FIFO_INST[0].fifo_inst.router_data_out[1] OAI21X1
XINVX1_15 FIFO_INST[0].fifo_inst.mem[2][1] _119_ vdd gnd INVX1
XNAND3X1_3 FIFO_INST[0].fifo_inst.rd_ptr[1] vdd gnd FIFO_INST[0].fifo_inst.mem[3][1] FIFO_INST[0].fifo_inst.rd_ptr[0] _120_ NAND3X1
XOAI21X1_65 gnd vdd _119_ _108_ _121_ _120_ OAI21X1
XINVX1_16 FIFO_INST[0].fifo_inst.mem[1][1] _122_ vdd gnd INVX1
XNAND2X1_15 vdd _123_ gnd FIFO_INST[0].fifo_inst.mem[0][1] _112_ NAND2X1
XOAI21X1_66 gnd vdd _122_ _115_ _124_ _123_ OAI21X1
XOAI21X1_67 gnd vdd _121_ _124_ _125_ _62_ OAI21X1
XNAND2X1_16 vdd _10_[1] gnd _118_ _125_ NAND2X1
XOAI21X1_68 gnd vdd FIFO_INST[0].fifo_inst.empty_bF$buf3 _51_ _126_ FIFO_INST[0].fifo_inst.router_data_out[2] OAI21X1
XINVX1_17 FIFO_INST[0].fifo_inst.mem[2][2] _127_ vdd gnd INVX1
XNAND3X1_4 FIFO_INST[0].fifo_inst.rd_ptr[1] vdd gnd FIFO_INST[0].fifo_inst.mem[3][2] FIFO_INST[0].fifo_inst.rd_ptr[0] _128_ NAND3X1
XOAI21X1_69 gnd vdd _127_ _108_ _129_ _128_ OAI21X1
XINVX1_18 FIFO_INST[0].fifo_inst.mem[1][2] _130_ vdd gnd INVX1
XNAND2X1_17 vdd _131_ gnd FIFO_INST[0].fifo_inst.mem[0][2] _112_ NAND2X1
XOAI21X1_70 gnd vdd _130_ _115_ _132_ _131_ OAI21X1
XOAI21X1_71 gnd vdd _129_ _132_ _133_ _62_ OAI21X1
XNAND2X1_18 vdd _10_[2] gnd _126_ _133_ NAND2X1
XOAI21X1_72 gnd vdd FIFO_INST[0].fifo_inst.empty_bF$buf0 _51_ _134_ FIFO_INST[0].fifo_inst.router_data_out[3] OAI21X1
XINVX1_19 FIFO_INST[0].fifo_inst.mem[2][3] _135_ vdd gnd INVX1
XNAND3X1_5 FIFO_INST[0].fifo_inst.rd_ptr[1] vdd gnd FIFO_INST[0].fifo_inst.mem[3][3] FIFO_INST[0].fifo_inst.rd_ptr[0] _136_ NAND3X1
XOAI21X1_73 gnd vdd _135_ _108_ _137_ _136_ OAI21X1
XINVX1_20 FIFO_INST[0].fifo_inst.mem[1][3] _138_ vdd gnd INVX1
XNAND2X1_19 vdd _139_ gnd FIFO_INST[0].fifo_inst.mem[0][3] _112_ NAND2X1
XOAI21X1_74 gnd vdd _138_ _115_ _140_ _139_ OAI21X1
XOAI21X1_75 gnd vdd _137_ _140_ _141_ _62_ OAI21X1
XNAND2X1_20 vdd _10_[3] gnd _134_ _141_ NAND2X1
XOAI21X1_76 gnd vdd FIFO_INST[0].fifo_inst.empty_bF$buf0 _51_ _142_ FIFO_INST[0].fifo_inst.router_data_out[4] OAI21X1
XINVX1_21 FIFO_INST[0].fifo_inst.mem[2][4] _143_ vdd gnd INVX1
XNAND3X1_6 FIFO_INST[0].fifo_inst.rd_ptr[1] vdd gnd FIFO_INST[0].fifo_inst.mem[3][4] FIFO_INST[0].fifo_inst.rd_ptr[0] _144_ NAND3X1
XOAI21X1_77 gnd vdd _143_ _108_ _145_ _144_ OAI21X1
XINVX1_22 FIFO_INST[0].fifo_inst.mem[1][4] _146_ vdd gnd INVX1
XNAND2X1_21 vdd _147_ gnd FIFO_INST[0].fifo_inst.mem[0][4] _112_ NAND2X1
XOAI21X1_78 gnd vdd _146_ _115_ _148_ _147_ OAI21X1
XOAI21X1_79 gnd vdd _145_ _148_ _149_ _62_ OAI21X1
XNAND2X1_22 vdd _10_[4] gnd _142_ _149_ NAND2X1
XOAI21X1_80 gnd vdd FIFO_INST[0].fifo_inst.empty_bF$buf1 _51_ _150_ FIFO_INST[0].fifo_inst.router_data_out[5] OAI21X1
XINVX1_23 FIFO_INST[0].fifo_inst.mem[2][5] _151_ vdd gnd INVX1
XNAND3X1_7 FIFO_INST[0].fifo_inst.rd_ptr[1] vdd gnd FIFO_INST[0].fifo_inst.mem[3][5] FIFO_INST[0].fifo_inst.rd_ptr[0] _152_ NAND3X1
XOAI21X1_81 gnd vdd _151_ _108_ _153_ _152_ OAI21X1
XINVX1_24 FIFO_INST[0].fifo_inst.mem[1][5] _154_ vdd gnd INVX1
XNAND2X1_23 vdd _155_ gnd FIFO_INST[0].fifo_inst.mem[0][5] _112_ NAND2X1
XOAI21X1_82 gnd vdd _154_ _115_ _156_ _155_ OAI21X1
XOAI21X1_83 gnd vdd _153_ _156_ _157_ _62_ OAI21X1
XNAND2X1_24 vdd _10_[5] gnd _150_ _157_ NAND2X1
XXNOR2X1_1 _16__bF$buf3 FIFO_INST[0].fifo_inst.wr_ptr[0] gnd vdd _11_[0] XNOR2X1
XNOR2X1_10 vdd _16__bF$buf3 gnd _158_ _21_ NOR2X1
XXNOR2X1_2 _158_ _20_ gnd vdd _11_[1] XNOR2X1
XXNOR2X1_3 _62_ _107_ gnd vdd _9_[0] XNOR2X1
XOAI21X1_84 gnd vdd _107_ _53_ _159_ FIFO_INST[0].fifo_inst.rd_ptr[1] OAI21X1
XOAI21X1_85 gnd vdd _53_ _115_ _9_[1] _159_ OAI21X1
XOAI21X1_86 gnd vdd FIFO_INST[0].fifo_inst.empty_bF$buf2 _51_ _160_ FIFO_INST[0].fifo_inst.pe_data_out[0] OAI21X1
XNAND2X1_25 vdd _8_[0] gnd _160_ _117_ NAND2X1
XOAI21X1_87 gnd vdd FIFO_INST[0].fifo_inst.empty_bF$buf3 _51_ _161_ FIFO_INST[0].fifo_inst.pe_data_out[1] OAI21X1
XNAND2X1_26 vdd _8_[1] gnd _161_ _125_ NAND2X1
XOAI21X1_88 gnd vdd FIFO_INST[0].fifo_inst.empty_bF$buf3 _51_ _162_ FIFO_INST[0].fifo_inst.pe_data_out[2] OAI21X1
XNAND2X1_27 vdd _8_[2] gnd _162_ _133_ NAND2X1
XOAI21X1_89 gnd vdd FIFO_INST[0].fifo_inst.empty_bF$buf3 _51_ _163_ FIFO_INST[0].fifo_inst.pe_data_out[3] OAI21X1
XNAND2X1_28 vdd _8_[3] gnd _163_ _141_ NAND2X1
XINVX8_1 vdd gnd rst _12_ INVX8
XDFFPOSX1_1 vdd _4_[0] gnd FIFO_INST[0].fifo_inst.mem[0][0] clk_bF$buf38 DFFPOSX1
XDFFPOSX1_2 vdd _4_[1] gnd FIFO_INST[0].fifo_inst.mem[0][1] clk_bF$buf34 DFFPOSX1
XDFFPOSX1_3 vdd _4_[2] gnd FIFO_INST[0].fifo_inst.mem[0][2] clk_bF$buf31 DFFPOSX1
XDFFPOSX1_4 vdd _4_[3] gnd FIFO_INST[0].fifo_inst.mem[0][3] clk_bF$buf38 DFFPOSX1
XDFFPOSX1_5 vdd _4_[4] gnd FIFO_INST[0].fifo_inst.mem[0][4] clk_bF$buf36 DFFPOSX1
XDFFPOSX1_6 vdd _4_[5] gnd FIFO_INST[0].fifo_inst.mem[0][5] clk_bF$buf32 DFFPOSX1
XDFFPOSX1_7 vdd _5_[0] gnd FIFO_INST[0].fifo_inst.mem[1][0] clk_bF$buf32 DFFPOSX1
XDFFPOSX1_8 vdd _5_[1] gnd FIFO_INST[0].fifo_inst.mem[1][1] clk_bF$buf32 DFFPOSX1
XDFFPOSX1_9 vdd _5_[2] gnd FIFO_INST[0].fifo_inst.mem[1][2] clk_bF$buf31 DFFPOSX1
XDFFPOSX1_10 vdd _5_[3] gnd FIFO_INST[0].fifo_inst.mem[1][3] clk_bF$buf38 DFFPOSX1
XDFFPOSX1_11 vdd _5_[4] gnd FIFO_INST[0].fifo_inst.mem[1][4] clk_bF$buf11 DFFPOSX1
XDFFPOSX1_12 vdd _5_[5] gnd FIFO_INST[0].fifo_inst.mem[1][5] clk_bF$buf2 DFFPOSX1
XDFFPOSX1_13 vdd _6_[0] gnd FIFO_INST[0].fifo_inst.mem[2][0] clk_bF$buf32 DFFPOSX1
XDFFPOSX1_14 vdd _6_[1] gnd FIFO_INST[0].fifo_inst.mem[2][1] clk_bF$buf2 DFFPOSX1
XDFFPOSX1_15 vdd _6_[2] gnd FIFO_INST[0].fifo_inst.mem[2][2] clk_bF$buf32 DFFPOSX1
XDFFPOSX1_16 vdd _6_[3] gnd FIFO_INST[0].fifo_inst.mem[2][3] clk_bF$buf32 DFFPOSX1
XDFFPOSX1_17 vdd _6_[4] gnd FIFO_INST[0].fifo_inst.mem[2][4] clk_bF$buf11 DFFPOSX1
XDFFPOSX1_18 vdd _6_[5] gnd FIFO_INST[0].fifo_inst.mem[2][5] clk_bF$buf31 DFFPOSX1
XDFFPOSX1_19 vdd _7_[0] gnd FIFO_INST[0].fifo_inst.mem[3][0] clk_bF$buf38 DFFPOSX1
XDFFPOSX1_20 vdd _7_[1] gnd FIFO_INST[0].fifo_inst.mem[3][1] clk_bF$buf2 DFFPOSX1
XDFFPOSX1_21 vdd _7_[2] gnd FIFO_INST[0].fifo_inst.mem[3][2] clk_bF$buf34 DFFPOSX1
XDFFPOSX1_22 vdd _7_[3] gnd FIFO_INST[0].fifo_inst.mem[3][3] clk_bF$buf2 DFFPOSX1
XDFFPOSX1_23 vdd _7_[4] gnd FIFO_INST[0].fifo_inst.mem[3][4] clk_bF$buf11 DFFPOSX1
XDFFPOSX1_24 vdd _7_[5] gnd FIFO_INST[0].fifo_inst.mem[3][5] clk_bF$buf11 DFFPOSX1
XDFFSR_1 gnd vdd _3_ vdd _12__bF$buf3 FIFO_INST[0].fifo_inst.full clk_bF$buf34 DFFSR
XDFFSR_2 gnd vdd _2_ _12__bF$buf1 vdd FIFO_INST[0].fifo_inst.empty clk_bF$buf36 DFFSR
XDFFSR_3 gnd vdd _8_[0] vdd _12__bF$buf2 FIFO_INST[0].fifo_inst.pe_data_out[0] clk_bF$buf40 DFFSR
XDFFSR_4 gnd vdd _8_[1] vdd _12__bF$buf2 FIFO_INST[0].fifo_inst.pe_data_out[1] clk_bF$buf40 DFFSR
XDFFSR_5 gnd vdd _8_[2] vdd _12__bF$buf0 FIFO_INST[0].fifo_inst.pe_data_out[2] clk_bF$buf41 DFFSR
XDFFSR_6 gnd vdd _8_[3] vdd _12__bF$buf3 FIFO_INST[0].fifo_inst.pe_data_out[3] clk_bF$buf41 DFFSR
XDFFSR_7 gnd vdd _10_[0] vdd _12__bF$buf2 FIFO_INST[0].fifo_inst.router_data_out[0] clk_bF$buf40 DFFSR
XDFFSR_8 gnd vdd _10_[1] vdd _12__bF$buf2 FIFO_INST[0].fifo_inst.router_data_out[1] clk_bF$buf40 DFFSR
XDFFSR_9 gnd vdd _10_[2] vdd _12__bF$buf3 FIFO_INST[0].fifo_inst.router_data_out[2] clk_bF$buf41 DFFSR
XDFFSR_10 gnd vdd _10_[3] vdd _12__bF$buf1 FIFO_INST[0].fifo_inst.router_data_out[3] clk_bF$buf36 DFFSR
XDFFSR_11 gnd vdd _10_[4] vdd _12__bF$buf2 FIFO_INST[0].fifo_inst.router_data_out[4] clk_bF$buf7 DFFSR
XDFFSR_12 gnd vdd _10_[5] vdd _12__bF$buf1 FIFO_INST[0].fifo_inst.router_data_out[5] clk_bF$buf7 DFFSR
XDFFSR_13 gnd vdd _9_[0] vdd _12__bF$buf0 FIFO_INST[0].fifo_inst.rd_ptr[0] clk_bF$buf34 DFFSR
XDFFSR_14 gnd vdd _9_[1] vdd _12__bF$buf1 FIFO_INST[0].fifo_inst.rd_ptr[1] clk_bF$buf36 DFFSR
XDFFSR_15 gnd vdd _11_[0] vdd _12__bF$buf0 FIFO_INST[0].fifo_inst.wr_ptr[0] clk_bF$buf34 DFFSR
XDFFSR_16 gnd vdd _11_[1] vdd _12__bF$buf0 FIFO_INST[0].fifo_inst.wr_ptr[1] clk_bF$buf34 DFFSR
XDFFSR_17 gnd vdd _1_[0] vdd _12__bF$buf3 FIFO_INST[0].fifo_inst.count[0] clk_bF$buf41 DFFSR
XDFFSR_18 gnd vdd _1_[1] vdd _12__bF$buf1 FIFO_INST[0].fifo_inst.count[1] clk_bF$buf36 DFFSR
XDFFSR_19 gnd vdd _1_[2] vdd _12__bF$buf3 FIFO_INST[0].fifo_inst.count[2] clk_bF$buf36 DFFSR
XOR2X2_3 _176_ FIFO_INST[1].fifo_inst.count[0] vdd gnd FIFO_INST[1].fifo_inst.count[1] OR2X2
XNOR2X1_11 vdd _176_ gnd _165_ FIFO_INST[1].fifo_inst.count[2] NOR2X1
XINVX1_25 FIFO_INST[1].fifo_inst.count[2] _177_ vdd gnd INVX1
XNOR2X1_12 vdd _176_ gnd _166_ _177_ NOR2X1
XINVX1_26 FIFO_INST[1].fifo_inst.full_bF$buf4 _178_ vdd gnd INVX1
XOAI21X1_90 gnd vdd FIFO_INST[1].fifo_inst.router_wr_en FIFO_INST[1].fifo_inst.pe_wr_en _179_ _178_ OAI21X1
XINVX1_27 FIFO_INST[1].fifo_inst.router_data_in[0] _180_ vdd gnd INVX1
XNAND2X1_29 vdd _181_ gnd FIFO_INST[1].fifo_inst.pe_wr_en FIFO_INST[1].fifo_inst.pe_data_in[0] NAND2X1
XOAI21X1_91 gnd vdd FIFO_INST[1].fifo_inst.pe_wr_en _180_ _182_ _181_ OAI21X1
XINVX1_28 FIFO_INST[1].fifo_inst.wr_ptr[1] _183_ vdd gnd INVX1
XINVX1_29 FIFO_INST[1].fifo_inst.wr_ptr[0] _184_ vdd gnd INVX1
XNOR2X1_13 vdd _184_ gnd _185_ _183_ NOR2X1