* XSpice netlist created from SPICE and liberty sources by spi2xspice.py
*SPICE netlist created from BLIF module noc_top by blif2BSpice
.subckt noc_top a_vdd a_gnd a_clk a_rst a_dest_0_ a_dest_1_ a_dest_2_ a_dest_3_ a_dest_4_ a_dest_5_ a_dest_6_ a_dest_7_ a_ext_data_in_0_ a_ext_data_in_1_ a_ext_data_in_2_ a_ext_data_in_3_ a_ext_data_in_4_ a_ext_data_in_5_ a_ext_data_in_6_ a_ext_data_in_7_ a_ext_data_in_8_ a_ext_data_in_9_ a_ext_data_in_10_ a_ext_data_in_11_ a_ext_data_in_12_ a_ext_data_in_13_ a_ext_data_in_14_ a_ext_data_in_15_ a_ext_data_out_0_ a_ext_data_out_1_ a_ext_data_out_2_ a_ext_data_out_3_ a_ext_data_out_4_ a_ext_data_out_5_ a_ext_data_out_6_ a_ext_data_out_7_ a_ext_data_out_8_ a_ext_data_out_9_ a_ext_data_out_10_ a_ext_data_out_11_ a_ext_data_out_12_ a_ext_data_out_13_ a_ext_data_out_14_ a_ext_data_out_15_ a_pe_busy_0_ a_pe_busy_1_ a_pe_busy_2_ a_pe_busy_3_
ABUFX4_1 [clk] clk_hier0_bF$buf5 d_lut_BUFX4
ABUFX4_2 [clk] clk_hier0_bF$buf4 d_lut_BUFX4
ABUFX4_3 [clk] clk_hier0_bF$buf3 d_lut_BUFX4
ABUFX4_4 [clk] clk_hier0_bF$buf2 d_lut_BUFX4
ABUFX4_5 [clk] clk_hier0_bF$buf1 d_lut_BUFX4
ABUFX4_6 [clk] clk_hier0_bF$buf0 d_lut_BUFX4
ABUFX2_1 [arb_source] arb_source_bF$buf3 d_lut_BUFX2
ABUFX4_7 [arb_source] arb_source_bF$buf2 d_lut_BUFX4
ABUFX4_8 [arb_source] arb_source_bF$buf1 d_lut_BUFX4
ABUFX4_9 [arb_source] arb_source_bF$buf0 d_lut_BUFX4
ABUFX4_10 [_16_] _16__bF$buf4 d_lut_BUFX4
ABUFX4_11 [_16_] _16__bF$buf3 d_lut_BUFX4
ABUFX4_12 [_16_] _16__bF$buf2 d_lut_BUFX4
ABUFX4_13 [_16_] _16__bF$buf1 d_lut_BUFX4
ABUFX4_14 [_16_] _16__bF$buf0 d_lut_BUFX4
ABUFX4_15 [_350_] _350__bF$buf3 d_lut_BUFX4
ABUFX4_16 [_350_] _350__bF$buf2 d_lut_BUFX4
ABUFX4_17 [_350_] _350__bF$buf1 d_lut_BUFX4
ABUFX4_18 [_350_] _350__bF$buf0 d_lut_BUFX4
ABUFX4_19 [FIFO_INST_3_.fifo_inst.full] FIFO_INST_3_.fifo_inst.full_bF$buf4 d_lut_BUFX4
ABUFX4_20 [FIFO_INST_3_.fifo_inst.full] FIFO_INST_3_.fifo_inst.full_bF$buf3 d_lut_BUFX4
ABUFX4_21 [FIFO_INST_3_.fifo_inst.full] FIFO_INST_3_.fifo_inst.full_bF$buf2 d_lut_BUFX4
ABUFX4_22 [FIFO_INST_3_.fifo_inst.full] FIFO_INST_3_.fifo_inst.full_bF$buf1 d_lut_BUFX4
ABUFX4_23 [FIFO_INST_3_.fifo_inst.full] FIFO_INST_3_.fifo_inst.full_bF$buf0 d_lut_BUFX4
ABUFX4_24 [FIFO_INST_2_.fifo_inst.empty] FIFO_INST_2_.fifo_inst.empty_bF$buf3 d_lut_BUFX4
ABUFX4_25 [FIFO_INST_2_.fifo_inst.empty] FIFO_INST_2_.fifo_inst.empty_bF$buf2 d_lut_BUFX4
ABUFX2_2 [FIFO_INST_2_.fifo_inst.empty] FIFO_INST_2_.fifo_inst.empty_bF$buf1 d_lut_BUFX2
ABUFX4_26 [FIFO_INST_2_.fifo_inst.empty] FIFO_INST_2_.fifo_inst.empty_bF$buf0 d_lut_BUFX4
ACLKBUF1_1 [clk_hier0_bF$buf5] clk_bF$buf41 d_lut_CLKBUF1
ACLKBUF1_2 [clk_hier0_bF$buf4] clk_bF$buf40 d_lut_CLKBUF1
ACLKBUF1_3 [clk_hier0_bF$buf3] clk_bF$buf39 d_lut_CLKBUF1
ACLKBUF1_4 [clk_hier0_bF$buf2] clk_bF$buf38 d_lut_CLKBUF1
ACLKBUF1_5 [clk_hier0_bF$buf1] clk_bF$buf37 d_lut_CLKBUF1
ACLKBUF1_6 [clk_hier0_bF$buf0] clk_bF$buf36 d_lut_CLKBUF1
ACLKBUF1_7 [clk_hier0_bF$buf5] clk_bF$buf35 d_lut_CLKBUF1
ACLKBUF1_8 [clk_hier0_bF$buf4] clk_bF$buf34 d_lut_CLKBUF1
ACLKBUF1_9 [clk_hier0_bF$buf3] clk_bF$buf33 d_lut_CLKBUF1
ACLKBUF1_10 [clk_hier0_bF$buf2] clk_bF$buf32 d_lut_CLKBUF1
ACLKBUF1_11 [clk_hier0_bF$buf1] clk_bF$buf31 d_lut_CLKBUF1
ACLKBUF1_12 [clk_hier0_bF$buf0] clk_bF$buf30 d_lut_CLKBUF1
ACLKBUF1_13 [clk_hier0_bF$buf5] clk_bF$buf29 d_lut_CLKBUF1
ACLKBUF1_14 [clk_hier0_bF$buf4] clk_bF$buf28 d_lut_CLKBUF1
ACLKBUF1_15 [clk_hier0_bF$buf3] clk_bF$buf27 d_lut_CLKBUF1
ACLKBUF1_16 [clk_hier0_bF$buf2] clk_bF$buf26 d_lut_CLKBUF1
ACLKBUF1_17 [clk_hier0_bF$buf1] clk_bF$buf25 d_lut_CLKBUF1
ACLKBUF1_18 [clk_hier0_bF$buf0] clk_bF$buf24 d_lut_CLKBUF1
ACLKBUF1_19 [clk_hier0_bF$buf5] clk_bF$buf23 d_lut_CLKBUF1
ACLKBUF1_20 [clk_hier0_bF$buf4] clk_bF$buf22 d_lut_CLKBUF1
ACLKBUF1_21 [clk_hier0_bF$buf3] clk_bF$buf21 d_lut_CLKBUF1
ACLKBUF1_22 [clk_hier0_bF$buf2] clk_bF$buf20 d_lut_CLKBUF1
ACLKBUF1_23 [clk_hier0_bF$buf1] clk_bF$buf19 d_lut_CLKBUF1
ACLKBUF1_24 [clk_hier0_bF$buf0] clk_bF$buf18 d_lut_CLKBUF1
ACLKBUF1_25 [clk_hier0_bF$buf5] clk_bF$buf17 d_lut_CLKBUF1
ACLKBUF1_26 [clk_hier0_bF$buf4] clk_bF$buf16 d_lut_CLKBUF1
ACLKBUF1_27 [clk_hier0_bF$buf3] clk_bF$buf15 d_lut_CLKBUF1
ACLKBUF1_28 [clk_hier0_bF$buf2] clk_bF$buf14 d_lut_CLKBUF1
ACLKBUF1_29 [clk_hier0_bF$buf1] clk_bF$buf13 d_lut_CLKBUF1
ACLKBUF1_30 [clk_hier0_bF$buf0] clk_bF$buf12 d_lut_CLKBUF1
ACLKBUF1_31 [clk_hier0_bF$buf5] clk_bF$buf11 d_lut_CLKBUF1
ACLKBUF1_32 [clk_hier0_bF$buf4] clk_bF$buf10 d_lut_CLKBUF1
ACLKBUF1_33 [clk_hier0_bF$buf3] clk_bF$buf9 d_lut_CLKBUF1
ACLKBUF1_34 [clk_hier0_bF$buf2] clk_bF$buf8 d_lut_CLKBUF1
ACLKBUF1_35 [clk_hier0_bF$buf1] clk_bF$buf7 d_lut_CLKBUF1
ACLKBUF1_36 [clk_hier0_bF$buf0] clk_bF$buf6 d_lut_CLKBUF1
ACLKBUF1_37 [clk_hier0_bF$buf5] clk_bF$buf5 d_lut_CLKBUF1
ACLKBUF1_38 [clk_hier0_bF$buf4] clk_bF$buf4 d_lut_CLKBUF1
ACLKBUF1_39 [clk_hier0_bF$buf3] clk_bF$buf3 d_lut_CLKBUF1
ACLKBUF1_40 [clk_hier0_bF$buf2] clk_bF$buf2 d_lut_CLKBUF1
ACLKBUF1_41 [clk_hier0_bF$buf1] clk_bF$buf1 d_lut_CLKBUF1
ACLKBUF1_42 [clk_hier0_bF$buf0] clk_bF$buf0 d_lut_CLKBUF1
ABUFX4_27 [_338_] _338__bF$buf3 d_lut_BUFX4
ABUFX4_28 [_338_] _338__bF$buf2 d_lut_BUFX4
ABUFX4_29 [_338_] _338__bF$buf1 d_lut_BUFX4
ABUFX4_30 [_338_] _338__bF$buf0 d_lut_BUFX4
ABUFX4_31 [FIFO_INST_1_.fifo_inst.full] FIFO_INST_1_.fifo_inst.full_bF$buf4 d_lut_BUFX4
ABUFX4_32 [FIFO_INST_1_.fifo_inst.full] FIFO_INST_1_.fifo_inst.full_bF$buf3 d_lut_BUFX4
ABUFX4_33 [FIFO_INST_1_.fifo_inst.full] FIFO_INST_1_.fifo_inst.full_bF$buf2 d_lut_BUFX4
ABUFX4_34 [FIFO_INST_1_.fifo_inst.full] FIFO_INST_1_.fifo_inst.full_bF$buf1 d_lut_BUFX4
ABUFX4_35 [FIFO_INST_1_.fifo_inst.full] FIFO_INST_1_.fifo_inst.full_bF$buf0 d_lut_BUFX4
ABUFX4_36 [_179_] _179__bF$buf4 d_lut_BUFX4
ABUFX4_37 [_179_] _179__bF$buf3 d_lut_BUFX4
ABUFX4_38 [_179_] _179__bF$buf2 d_lut_BUFX4
ABUFX4_39 [_179_] _179__bF$buf1 d_lut_BUFX4
ABUFX4_40 [_179_] _179__bF$buf0 d_lut_BUFX4
ABUFX4_41 [_24_] _24__bF$buf3 d_lut_BUFX4
ABUFX4_42 [_24_] _24__bF$buf2 d_lut_BUFX4
ABUFX4_43 [_24_] _24__bF$buf1 d_lut_BUFX4
ABUFX4_44 [_24_] _24__bF$buf0 d_lut_BUFX4
ABUFX4_45 [_505_] _505__bF$buf4 d_lut_BUFX4
ABUFX4_46 [_505_] _505__bF$buf3 d_lut_BUFX4
ABUFX4_47 [_505_] _505__bF$buf2 d_lut_BUFX4
ABUFX4_48 [_505_] _505__bF$buf1 d_lut_BUFX4
ABUFX4_49 [_505_] _505__bF$buf0 d_lut_BUFX4
ABUFX4_50 [_12_] _12__bF$buf3 d_lut_BUFX4
ABUFX4_51 [_12_] _12__bF$buf2 d_lut_BUFX4
ABUFX4_52 [_12_] _12__bF$buf1 d_lut_BUFX4
ABUFX4_53 [_12_] _12__bF$buf0 d_lut_BUFX4
ABUFX4_54 [_187_] _187__bF$buf3 d_lut_BUFX4
ABUFX4_55 [_187_] _187__bF$buf2 d_lut_BUFX4
ABUFX4_56 [_187_] _187__bF$buf1 d_lut_BUFX4
ABUFX4_57 [_187_] _187__bF$buf0 d_lut_BUFX4
ABUFX4_58 [FIFO_INST_1_.fifo_inst.empty] FIFO_INST_1_.fifo_inst.empty_bF$buf3 d_lut_BUFX4
ABUFX4_59 [FIFO_INST_1_.fifo_inst.empty] FIFO_INST_1_.fifo_inst.empty_bF$buf2 d_lut_BUFX4
ABUFX2_3 [FIFO_INST_1_.fifo_inst.empty] FIFO_INST_1_.fifo_inst.empty_bF$buf1 d_lut_BUFX2
ABUFX4_60 [FIFO_INST_1_.fifo_inst.empty] FIFO_INST_1_.fifo_inst.empty_bF$buf0 d_lut_BUFX4
ABUFX4_61 [FIFO_INST_2_.fifo_inst.full] FIFO_INST_2_.fifo_inst.full_bF$buf4 d_lut_BUFX4
ABUFX4_62 [FIFO_INST_2_.fifo_inst.full] FIFO_INST_2_.fifo_inst.full_bF$buf3 d_lut_BUFX4
ABUFX4_63 [FIFO_INST_2_.fifo_inst.full] FIFO_INST_2_.fifo_inst.full_bF$buf2 d_lut_BUFX4
ABUFX4_64 [FIFO_INST_2_.fifo_inst.full] FIFO_INST_2_.fifo_inst.full_bF$buf1 d_lut_BUFX4
ABUFX4_65 [FIFO_INST_2_.fifo_inst.full] FIFO_INST_2_.fifo_inst.full_bF$buf0 d_lut_BUFX4
ABUFX4_66 [_904_] _904__bF$buf5 d_lut_BUFX4
ABUFX4_67 [_904_] _904__bF$buf4 d_lut_BUFX4
ABUFX4_68 [_904_] _904__bF$buf3 d_lut_BUFX4
ABUFX4_69 [_904_] _904__bF$buf2 d_lut_BUFX4
ABUFX4_70 [_904_] _904__bF$buf1 d_lut_BUFX4
ABUFX4_71 [_904_] _904__bF$buf0 d_lut_BUFX4
ABUFX4_72 [FIFO_INST_0_.fifo_inst.full] FIFO_INST_0_.fifo_inst.full_bF$buf4 d_lut_BUFX4
ABUFX4_73 [FIFO_INST_0_.fifo_inst.full] FIFO_INST_0_.fifo_inst.full_bF$buf3 d_lut_BUFX4
ABUFX4_74 [FIFO_INST_0_.fifo_inst.full] FIFO_INST_0_.fifo_inst.full_bF$buf2 d_lut_BUFX4
ABUFX4_75 [FIFO_INST_0_.fifo_inst.full] FIFO_INST_0_.fifo_inst.full_bF$buf1 d_lut_BUFX4
ABUFX4_76 [FIFO_INST_0_.fifo_inst.full] FIFO_INST_0_.fifo_inst.full_bF$buf0 d_lut_BUFX4
ABUFX4_77 [_175_] _175__bF$buf3 d_lut_BUFX4
ABUFX4_78 [_175_] _175__bF$buf2 d_lut_BUFX4
ABUFX4_79 [_175_] _175__bF$buf1 d_lut_BUFX4
ABUFX4_80 [_175_] _175__bF$buf0 d_lut_BUFX4
ABUFX4_81 [_513_] _513__bF$buf3 d_lut_BUFX4
ABUFX4_82 [_513_] _513__bF$buf2 d_lut_BUFX4
ABUFX4_83 [_513_] _513__bF$buf1 d_lut_BUFX4
ABUFX4_84 [_513_] _513__bF$buf0 d_lut_BUFX4
ABUFX4_85 [_501_] _501__bF$buf3 d_lut_BUFX4
ABUFX4_86 [_501_] _501__bF$buf2 d_lut_BUFX4
ABUFX4_87 [_501_] _501__bF$buf1 d_lut_BUFX4
ABUFX4_88 [_501_] _501__bF$buf0 d_lut_BUFX4
ABUFX4_89 [FIFO_INST_3_.fifo_inst.empty] FIFO_INST_3_.fifo_inst.empty_bF$buf3 d_lut_BUFX4
ABUFX4_90 [FIFO_INST_3_.fifo_inst.empty] FIFO_INST_3_.fifo_inst.empty_bF$buf2 d_lut_BUFX4
ABUFX4_91 [FIFO_INST_3_.fifo_inst.empty] FIFO_INST_3_.fifo_inst.empty_bF$buf1 d_lut_BUFX4
ABUFX2_4 [FIFO_INST_3_.fifo_inst.empty] FIFO_INST_3_.fifo_inst.empty_bF$buf0 d_lut_BUFX2
ABUFX4_92 [_342_] _342__bF$buf4 d_lut_BUFX4
ABUFX4_93 [_342_] _342__bF$buf3 d_lut_BUFX4
ABUFX4_94 [_342_] _342__bF$buf2 d_lut_BUFX4
ABUFX4_95 [_342_] _342__bF$buf1 d_lut_BUFX4
ABUFX4_96 [_342_] _342__bF$buf0 d_lut_BUFX4
ABUFX4_97 [FIFO_INST_0_.fifo_inst.empty] FIFO_INST_0_.fifo_inst.empty_bF$buf3 d_lut_BUFX4
ABUFX2_5 [FIFO_INST_0_.fifo_inst.empty] FIFO_INST_0_.fifo_inst.empty_bF$buf2 d_lut_BUFX2
ABUFX4_98 [FIFO_INST_0_.fifo_inst.empty] FIFO_INST_0_.fifo_inst.empty_bF$buf1 d_lut_BUFX4
ABUFX4_99 [FIFO_INST_0_.fifo_inst.empty] FIFO_INST_0_.fifo_inst.empty_bF$buf0 d_lut_BUFX4
ABUFX2_6 [_0__0_] ext_data_out_0_ d_lut_BUFX2
ABUFX2_7 [_0__1_] ext_data_out_1_ d_lut_BUFX2
ABUFX2_8 [_0__2_] ext_data_out_2_ d_lut_BUFX2
ABUFX2_9 [_0__3_] ext_data_out_3_ d_lut_BUFX2
ABUFX2_10 [_0__4_] ext_data_out_4_ d_lut_BUFX2
ABUFX2_11 [_0__5_] ext_data_out_5_ d_lut_BUFX2
ABUFX2_12 [_0__6_] ext_data_out_6_ d_lut_BUFX2
ABUFX2_13 [_0__7_] ext_data_out_7_ d_lut_BUFX2
ABUFX2_14 [_0__8_] ext_data_out_8_ d_lut_BUFX2
ABUFX2_15 [_0__9_] ext_data_out_9_ d_lut_BUFX2
ABUFX2_16 [_0__10_] ext_data_out_10_ d_lut_BUFX2
ABUFX2_17 [_0__11_] ext_data_out_11_ d_lut_BUFX2
ABUFX2_18 [_0__12_] ext_data_out_12_ d_lut_BUFX2
ABUFX2_19 [_0__13_] ext_data_out_13_ d_lut_BUFX2
ABUFX2_20 [_0__14_] ext_data_out_14_ d_lut_BUFX2
ABUFX2_21 [_0__15_] ext_data_out_15_ d_lut_BUFX2
ABUFX2_22 [PE_INST_0_.pe.busy] pe_busy_0_ d_lut_BUFX2
ABUFX2_23 [PE_INST_1_.pe.busy] pe_busy_1_ d_lut_BUFX2
ABUFX2_24 [PE_INST_2_.pe.busy] pe_busy_2_ d_lut_BUFX2
ABUFX2_25 [PE_INST_3_.pe.busy] pe_busy_3_ d_lut_BUFX2
AOR2X2_1 [FIFO_INST_0_.fifo_inst.count_1_ FIFO_INST_0_.fifo_inst.count_0_] _13_ d_lut_OR2X2
ANOR2X1_1 [FIFO_INST_0_.fifo_inst.count_2_ _13_] _2_ d_lut_NOR2X1
AINVX1_1 [FIFO_INST_0_.fifo_inst.count_2_] _14_ d_lut_INVX1
ANOR2X1_2 [_14_ _13_] _3_ d_lut_NOR2X1
AINVX1_2 [FIFO_INST_0_.fifo_inst.full_bF$buf4] _15_ d_lut_INVX1
AOAI21X1_1 [FIFO_INST_0_.fifo_inst.router_wr_en FIFO_INST_0_.fifo_inst.pe_wr_en _15_] _16_ d_lut_OAI21X1
AINVX1_3 [FIFO_INST_0_.fifo_inst.router_data_in_0_] _17_ d_lut_INVX1
ANAND2X1_1 [FIFO_INST_0_.fifo_inst.pe_wr_en FIFO_INST_0_.fifo_inst.pe_data_in_0_] _18_ d_lut_NAND2X1
AOAI21X1_2 [FIFO_INST_0_.fifo_inst.pe_wr_en _17_ _18_] _19_ d_lut_OAI21X1
AINVX1_4 [FIFO_INST_0_.fifo_inst.wr_ptr_1_] _20_ d_lut_INVX1
AINVX1_5 [FIFO_INST_0_.fifo_inst.wr_ptr_0_] _21_ d_lut_INVX1
ANOR2X1_3 [_20_ _21_] _22_ d_lut_NOR2X1
AMUX2X1_1 [_19_ FIFO_INST_0_.fifo_inst.mem_3__0_ _22_] _23_ d_lut_MUX2X1
ANOR2X1_4 [FIFO_INST_0_.fifo_inst.router_wr_en FIFO_INST_0_.fifo_inst.pe_wr_en] _24_ d_lut_NOR2X1
AOAI21X1_3 [FIFO_INST_0_.fifo_inst.full_bF$buf3 _24__bF$buf3 FIFO_INST_0_.fifo_inst.mem_3__0_] _25_ d_lut_OAI21X1
AOAI21X1_4 [_16__bF$buf4 _23_ _25_] _7__0_ d_lut_OAI21X1
AINVX1_6 [FIFO_INST_0_.fifo_inst.router_data_in_1_] _26_ d_lut_INVX1
ANAND2X1_2 [FIFO_INST_0_.fifo_inst.pe_wr_en FIFO_INST_0_.fifo_inst.pe_data_in_1_] _27_ d_lut_NAND2X1
AOAI21X1_5 [FIFO_INST_0_.fifo_inst.pe_wr_en _26_ _27_] _28_ d_lut_OAI21X1
AMUX2X1_2 [_28_ FIFO_INST_0_.fifo_inst.mem_3__1_ _22_] _29_ d_lut_MUX2X1
AOAI21X1_6 [FIFO_INST_0_.fifo_inst.full_bF$buf2 _24__bF$buf2 FIFO_INST_0_.fifo_inst.mem_3__1_] _30_ d_lut_OAI21X1
AOAI21X1_7 [_16__bF$buf3 _29_ _30_] _7__1_ d_lut_OAI21X1
AINVX1_7 [FIFO_INST_0_.fifo_inst.router_data_in_2_] _31_ d_lut_INVX1
ANAND2X1_3 [FIFO_INST_0_.fifo_inst.pe_wr_en FIFO_INST_0_.fifo_inst.pe_data_in_2_] _32_ d_lut_NAND2X1
AOAI21X1_8 [FIFO_INST_0_.fifo_inst.pe_wr_en _31_ _32_] _33_ d_lut_OAI21X1
AMUX2X1_3 [_33_ FIFO_INST_0_.fifo_inst.mem_3__2_ _22_] _34_ d_lut_MUX2X1
AOAI21X1_9 [FIFO_INST_0_.fifo_inst.full_bF$buf1 _24__bF$buf1 FIFO_INST_0_.fifo_inst.mem_3__2_] _35_ d_lut_OAI21X1
AOAI21X1_10 [_16__bF$buf2 _34_ _35_] _7__2_ d_lut_OAI21X1
AINVX1_8 [FIFO_INST_0_.fifo_inst.router_data_in_3_] _36_ d_lut_INVX1
ANAND2X1_4 [FIFO_INST_0_.fifo_inst.pe_wr_en FIFO_INST_0_.fifo_inst.pe_data_in_3_] _37_ d_lut_NAND2X1
AOAI21X1_11 [FIFO_INST_0_.fifo_inst.pe_wr_en _36_ _37_] _38_ d_lut_OAI21X1
AMUX2X1_4 [_38_ FIFO_INST_0_.fifo_inst.mem_3__3_ _22_] _39_ d_lut_MUX2X1
AOAI21X1_12 [FIFO_INST_0_.fifo_inst.full_bF$buf0 _24__bF$buf0 FIFO_INST_0_.fifo_inst.mem_3__3_] _40_ d_lut_OAI21X1
AOAI21X1_13 [_16__bF$buf1 _39_ _40_] _7__3_ d_lut_OAI21X1
AINVX1_9 [FIFO_INST_0_.fifo_inst.router_data_in_4_] _41_ d_lut_INVX1
ANAND2X1_5 [FIFO_INST_0_.fifo_inst.pe_wr_en FIFO_INST_0_.fifo_inst.pe_data_in_4_] _42_ d_lut_NAND2X1
AOAI21X1_14 [FIFO_INST_0_.fifo_inst.pe_wr_en _41_ _42_] _43_ d_lut_OAI21X1
AMUX2X1_5 [_43_ FIFO_INST_0_.fifo_inst.mem_3__4_ _22_] _44_ d_lut_MUX2X1
AOAI21X1_15 [FIFO_INST_0_.fifo_inst.full_bF$buf4 _24__bF$buf3 FIFO_INST_0_.fifo_inst.mem_3__4_] _45_ d_lut_OAI21X1
AOAI21X1_16 [_16__bF$buf0 _44_ _45_] _7__4_ d_lut_OAI21X1
AINVX1_10 [FIFO_INST_0_.fifo_inst.router_data_in_5_] _46_ d_lut_INVX1
ANAND2X1_6 [FIFO_INST_0_.fifo_inst.pe_wr_en FIFO_INST_0_.fifo_inst.pe_data_in_5_] _47_ d_lut_NAND2X1
AOAI21X1_17 [FIFO_INST_0_.fifo_inst.pe_wr_en _46_ _47_] _48_ d_lut_OAI21X1
AMUX2X1_6 [_48_ FIFO_INST_0_.fifo_inst.mem_3__5_ _22_] _49_ d_lut_MUX2X1
AOAI21X1_18 [FIFO_INST_0_.fifo_inst.full_bF$buf3 _24__bF$buf2 FIFO_INST_0_.fifo_inst.mem_3__5_] _50_ d_lut_OAI21X1
AOAI21X1_19 [_16__bF$buf4 _49_ _50_] _7__5_ d_lut_OAI21X1
ANOR2X1_5 [FIFO_INST_0_.fifo_inst.router_rd_en FIFO_INST_0_.fifo_inst.pe_rd_en] _51_ d_lut_NOR2X1
AOAI21X1_20 [FIFO_INST_0_.fifo_inst.empty_bF$buf3 _51_ _16__bF$buf3] _52_ d_lut_OAI21X1
AXOR2X1_1 [_52_ FIFO_INST_0_.fifo_inst.count_0_] _1__0_ d_lut_XOR2X1
AOR2X2_2 [_51_ FIFO_INST_0_.fifo_inst.empty_bF$buf2] _53_ d_lut_OR2X2
AXOR2X1_2 [FIFO_INST_0_.fifo_inst.count_1_ FIFO_INST_0_.fifo_inst.count_0_] _54_ d_lut_XOR2X1
AMUX2X1_7 [FIFO_INST_0_.fifo_inst.count_1_ _54_ _16__bF$buf2] _55_ d_lut_MUX2X1
AMUX2X1_8 [_55_ _54_ _53_] _1__1_ d_lut_MUX2X1
ANAND3X1_1 [FIFO_INST_0_.fifo_inst.count_1_ FIFO_INST_0_.fifo_inst.count_0_ _14_] _56_ d_lut_NAND3X1
ANAND2X1_7 [FIFO_INST_0_.fifo_inst.count_1_ FIFO_INST_0_.fifo_inst.count_0_] _57_ d_lut_NAND2X1
ANAND2X1_8 [FIFO_INST_0_.fifo_inst.count_2_ _57_] _58_ d_lut_NAND2X1
AAOI21X1_1 [_58_ _56_ _16__bF$buf1] _59_ d_lut_AOI21X1
AAND2X2_1 [_16__bF$buf0 FIFO_INST_0_.fifo_inst.count_2_] _60_ d_lut_AND2X2
AOAI21X1_21 [_60_ _59_ _53_] _61_ d_lut_OAI21X1
ANOR2X1_6 [FIFO_INST_0_.fifo_inst.empty_bF$buf1 _51_] _62_ d_lut_NOR2X1
AOAI21X1_22 [FIFO_INST_0_.fifo_inst.count_1_ FIFO_INST_0_.fifo_inst.count_0_ FIFO_INST_0_.fifo_inst.count_2_] _63_ d_lut_OAI21X1
AINVX1_11 [_63_] _64_ d_lut_INVX1
AOAI21X1_23 [_64_ _2_ _62_] _65_ d_lut_OAI21X1
ANAND2X1_9 [_65_ _61_] _1__2_ d_lut_NAND2X1
ANAND2X1_10 [FIFO_INST_0_.fifo_inst.wr_ptr_1_ _21_] _66_ d_lut_NAND2X1
AMUX2X1_9 [FIFO_INST_0_.fifo_inst.mem_2__0_ _19_ _66_] _67_ d_lut_MUX2X1
AOAI21X1_24 [FIFO_INST_0_.fifo_inst.full_bF$buf2 _24__bF$buf1 FIFO_INST_0_.fifo_inst.mem_2__0_] _68_ d_lut_OAI21X1
AOAI21X1_25 [_16__bF$buf4 _67_ _68_] _6__0_ d_lut_OAI21X1
AMUX2X1_10 [FIFO_INST_0_.fifo_inst.mem_2__1_ _28_ _66_] _69_ d_lut_MUX2X1
AOAI21X1_26 [FIFO_INST_0_.fifo_inst.full_bF$buf1 _24__bF$buf0 FIFO_INST_0_.fifo_inst.mem_2__1_] _70_ d_lut_OAI21X1
AOAI21X1_27 [_16__bF$buf3 _69_ _70_] _6__1_ d_lut_OAI21X1
AMUX2X1_11 [FIFO_INST_0_.fifo_inst.mem_2__2_ _33_ _66_] _71_ d_lut_MUX2X1
AOAI21X1_28 [FIFO_INST_0_.fifo_inst.full_bF$buf0 _24__bF$buf3 FIFO_INST_0_.fifo_inst.mem_2__2_] _72_ d_lut_OAI21X1
AOAI21X1_29 [_16__bF$buf2 _71_ _72_] _6__2_ d_lut_OAI21X1
AMUX2X1_12 [FIFO_INST_0_.fifo_inst.mem_2__3_ _38_ _66_] _73_ d_lut_MUX2X1
AOAI21X1_30 [FIFO_INST_0_.fifo_inst.full_bF$buf4 _24__bF$buf2 FIFO_INST_0_.fifo_inst.mem_2__3_] _74_ d_lut_OAI21X1
AOAI21X1_31 [_16__bF$buf1 _73_ _74_] _6__3_ d_lut_OAI21X1
AMUX2X1_13 [FIFO_INST_0_.fifo_inst.mem_2__4_ _43_ _66_] _75_ d_lut_MUX2X1
AOAI21X1_32 [FIFO_INST_0_.fifo_inst.full_bF$buf3 _24__bF$buf1 FIFO_INST_0_.fifo_inst.mem_2__4_] _76_ d_lut_OAI21X1
AOAI21X1_33 [_16__bF$buf0 _75_ _76_] _6__4_ d_lut_OAI21X1
AMUX2X1_14 [FIFO_INST_0_.fifo_inst.mem_2__5_ _48_ _66_] _77_ d_lut_MUX2X1
AOAI21X1_34 [FIFO_INST_0_.fifo_inst.full_bF$buf2 _24__bF$buf0 FIFO_INST_0_.fifo_inst.mem_2__5_] _78_ d_lut_OAI21X1
AOAI21X1_35 [_16__bF$buf4 _77_ _78_] _6__5_ d_lut_OAI21X1
ANOR2X1_7 [FIFO_INST_0_.fifo_inst.wr_ptr_1_ _21_] _79_ d_lut_NOR2X1
AMUX2X1_15 [_19_ FIFO_INST_0_.fifo_inst.mem_1__0_ _79_] _80_ d_lut_MUX2X1
AOAI21X1_36 [FIFO_INST_0_.fifo_inst.full_bF$buf1 _24__bF$buf3 FIFO_INST_0_.fifo_inst.mem_1__0_] _81_ d_lut_OAI21X1
AOAI21X1_37 [_16__bF$buf3 _80_ _81_] _5__0_ d_lut_OAI21X1
AMUX2X1_16 [_28_ FIFO_INST_0_.fifo_inst.mem_1__1_ _79_] _82_ d_lut_MUX2X1
AOAI21X1_38 [FIFO_INST_0_.fifo_inst.full_bF$buf0 _24__bF$buf2 FIFO_INST_0_.fifo_inst.mem_1__1_] _83_ d_lut_OAI21X1
AOAI21X1_39 [_16__bF$buf2 _82_ _83_] _5__1_ d_lut_OAI21X1
AMUX2X1_17 [_33_ FIFO_INST_0_.fifo_inst.mem_1__2_ _79_] _84_ d_lut_MUX2X1
AOAI21X1_40 [FIFO_INST_0_.fifo_inst.full_bF$buf4 _24__bF$buf1 FIFO_INST_0_.fifo_inst.mem_1__2_] _85_ d_lut_OAI21X1
AOAI21X1_41 [_16__bF$buf1 _84_ _85_] _5__2_ d_lut_OAI21X1
AMUX2X1_18 [_38_ FIFO_INST_0_.fifo_inst.mem_1__3_ _79_] _86_ d_lut_MUX2X1
AOAI21X1_42 [FIFO_INST_0_.fifo_inst.full_bF$buf3 _24__bF$buf0 FIFO_INST_0_.fifo_inst.mem_1__3_] _87_ d_lut_OAI21X1
AOAI21X1_43 [_16__bF$buf0 _86_ _87_] _5__3_ d_lut_OAI21X1
AMUX2X1_19 [_43_ FIFO_INST_0_.fifo_inst.mem_1__4_ _79_] _88_ d_lut_MUX2X1
AOAI21X1_44 [FIFO_INST_0_.fifo_inst.full_bF$buf2 _24__bF$buf3 FIFO_INST_0_.fifo_inst.mem_1__4_] _89_ d_lut_OAI21X1
AOAI21X1_45 [_16__bF$buf4 _88_ _89_] _5__4_ d_lut_OAI21X1
AMUX2X1_20 [_48_ FIFO_INST_0_.fifo_inst.mem_1__5_ _79_] _90_ d_lut_MUX2X1
AOAI21X1_46 [FIFO_INST_0_.fifo_inst.full_bF$buf1 _24__bF$buf2 FIFO_INST_0_.fifo_inst.mem_1__5_] _91_ d_lut_OAI21X1
AOAI21X1_47 [_16__bF$buf3 _90_ _91_] _5__5_ d_lut_OAI21X1
ANOR2X1_8 [FIFO_INST_0_.fifo_inst.wr_ptr_1_ FIFO_INST_0_.fifo_inst.wr_ptr_0_] _92_ d_lut_NOR2X1
AMUX2X1_21 [_19_ FIFO_INST_0_.fifo_inst.mem_0__0_ _92_] _93_ d_lut_MUX2X1
AOAI21X1_48 [FIFO_INST_0_.fifo_inst.full_bF$buf0 _24__bF$buf1 FIFO_INST_0_.fifo_inst.mem_0__0_] _94_ d_lut_OAI21X1
AOAI21X1_49 [_16__bF$buf2 _93_ _94_] _4__0_ d_lut_OAI21X1
AMUX2X1_22 [_28_ FIFO_INST_0_.fifo_inst.mem_0__1_ _92_] _95_ d_lut_MUX2X1
AOAI21X1_50 [FIFO_INST_0_.fifo_inst.full_bF$buf4 _24__bF$buf0 FIFO_INST_0_.fifo_inst.mem_0__1_] _96_ d_lut_OAI21X1
AOAI21X1_51 [_16__bF$buf1 _95_ _96_] _4__1_ d_lut_OAI21X1
AMUX2X1_23 [_33_ FIFO_INST_0_.fifo_inst.mem_0__2_ _92_] _97_ d_lut_MUX2X1
AOAI21X1_52 [FIFO_INST_0_.fifo_inst.full_bF$buf3 _24__bF$buf3 FIFO_INST_0_.fifo_inst.mem_0__2_] _98_ d_lut_OAI21X1
AOAI21X1_53 [_16__bF$buf0 _97_ _98_] _4__2_ d_lut_OAI21X1
AMUX2X1_24 [_38_ FIFO_INST_0_.fifo_inst.mem_0__3_ _92_] _99_ d_lut_MUX2X1
AOAI21X1_54 [FIFO_INST_0_.fifo_inst.full_bF$buf2 _24__bF$buf2 FIFO_INST_0_.fifo_inst.mem_0__3_] _100_ d_lut_OAI21X1
AOAI21X1_55 [_16__bF$buf4 _99_ _100_] _4__3_ d_lut_OAI21X1
AMUX2X1_25 [_43_ FIFO_INST_0_.fifo_inst.mem_0__4_ _92_] _101_ d_lut_MUX2X1
AOAI21X1_56 [FIFO_INST_0_.fifo_inst.full_bF$buf1 _24__bF$buf1 FIFO_INST_0_.fifo_inst.mem_0__4_] _102_ d_lut_OAI21X1
AOAI21X1_57 [_16__bF$buf3 _101_ _102_] _4__4_ d_lut_OAI21X1
AMUX2X1_26 [_48_ FIFO_INST_0_.fifo_inst.mem_0__5_ _92_] _103_ d_lut_MUX2X1
AOAI21X1_58 [FIFO_INST_0_.fifo_inst.full_bF$buf0 _24__bF$buf0 FIFO_INST_0_.fifo_inst.mem_0__5_] _104_ d_lut_OAI21X1
AOAI21X1_59 [_16__bF$buf2 _103_ _104_] _4__5_ d_lut_OAI21X1
AOAI21X1_60 [FIFO_INST_0_.fifo_inst.empty_bF$buf0 _51_ FIFO_INST_0_.fifo_inst.router_data_out_0_] _105_ d_lut_OAI21X1
AINVX1_12 [FIFO_INST_0_.fifo_inst.mem_2__0_] _106_ d_lut_INVX1
AINVX2_1 [FIFO_INST_0_.fifo_inst.rd_ptr_0_] _107_ d_lut_INVX2
ANAND2X1_11 [FIFO_INST_0_.fifo_inst.rd_ptr_1_ _107_] _108_ d_lut_NAND2X1
ANAND3X1_2 [FIFO_INST_0_.fifo_inst.mem_3__0_ FIFO_INST_0_.fifo_inst.rd_ptr_1_ FIFO_INST_0_.fifo_inst.rd_ptr_0_] _109_ d_lut_NAND3X1
AOAI21X1_61 [_106_ _108_ _109_] _110_ d_lut_OAI21X1
AINVX1_13 [FIFO_INST_0_.fifo_inst.mem_1__0_] _111_ d_lut_INVX1
ANOR2X1_9 [FIFO_INST_0_.fifo_inst.rd_ptr_1_ FIFO_INST_0_.fifo_inst.rd_ptr_0_] _112_ d_lut_NOR2X1
ANAND2X1_12 [FIFO_INST_0_.fifo_inst.mem_0__0_ _112_] _113_ d_lut_NAND2X1
AINVX1_14 [FIFO_INST_0_.fifo_inst.rd_ptr_1_] _114_ d_lut_INVX1
ANAND2X1_13 [FIFO_INST_0_.fifo_inst.rd_ptr_0_ _114_] _115_ d_lut_NAND2X1
AOAI21X1_62 [_111_ _115_ _113_] _116_ d_lut_OAI21X1
AOAI21X1_63 [_110_ _116_ _62_] _117_ d_lut_OAI21X1
ANAND2X1_14 [_105_ _117_] _10__0_ d_lut_NAND2X1
AOAI21X1_64 [FIFO_INST_0_.fifo_inst.empty_bF$buf3 _51_ FIFO_INST_0_.fifo_inst.router_data_out_1_] _118_ d_lut_OAI21X1
AINVX1_15 [FIFO_INST_0_.fifo_inst.mem_2__1_] _119_ d_lut_INVX1
ANAND3X1_3 [FIFO_INST_0_.fifo_inst.mem_3__1_ FIFO_INST_0_.fifo_inst.rd_ptr_1_ FIFO_INST_0_.fifo_inst.rd_ptr_0_] _120_ d_lut_NAND3X1
AOAI21X1_65 [_119_ _108_ _120_] _121_ d_lut_OAI21X1
AINVX1_16 [FIFO_INST_0_.fifo_inst.mem_1__1_] _122_ d_lut_INVX1
ANAND2X1_15 [FIFO_INST_0_.fifo_inst.mem_0__1_ _112_] _123_ d_lut_NAND2X1
AOAI21X1_66 [_122_ _115_ _123_] _124_ d_lut_OAI21X1
AOAI21X1_67 [_121_ _124_ _62_] _125_ d_lut_OAI21X1
ANAND2X1_16 [_118_ _125_] _10__1_ d_lut_NAND2X1
AOAI21X1_68 [FIFO_INST_0_.fifo_inst.empty_bF$buf2 _51_ FIFO_INST_0_.fifo_inst.router_data_out_2_] _126_ d_lut_OAI21X1
AINVX1_17 [FIFO_INST_0_.fifo_inst.mem_2__2_] _127_ d_lut_INVX1
ANAND3X1_4 [FIFO_INST_0_.fifo_inst.mem_3__2_ FIFO_INST_0_.fifo_inst.rd_ptr_1_ FIFO_INST_0_.fifo_inst.rd_ptr_0_] _128_ d_lut_NAND3X1
AOAI21X1_69 [_127_ _108_ _128_] _129_ d_lut_OAI21X1
AINVX1_18 [FIFO_INST_0_.fifo_inst.mem_1__2_] _130_ d_lut_INVX1
ANAND2X1_17 [FIFO_INST_0_.fifo_inst.mem_0__2_ _112_] _131_ d_lut_NAND2X1
AOAI21X1_70 [_130_ _115_ _131_] _132_ d_lut_OAI21X1
AOAI21X1_71 [_129_ _132_ _62_] _133_ d_lut_OAI21X1
ANAND2X1_18 [_126_ _133_] _10__2_ d_lut_NAND2X1
AOAI21X1_72 [FIFO_INST_0_.fifo_inst.empty_bF$buf1 _51_ FIFO_INST_0_.fifo_inst.router_data_out_3_] _134_ d_lut_OAI21X1
AINVX1_19 [FIFO_INST_0_.fifo_inst.mem_2__3_] _135_ d_lut_INVX1
ANAND3X1_5 [FIFO_INST_0_.fifo_inst.mem_3__3_ FIFO_INST_0_.fifo_inst.rd_ptr_1_ FIFO_INST_0_.fifo_inst.rd_ptr_0_] _136_ d_lut_NAND3X1
AOAI21X1_73 [_135_ _108_ _136_] _137_ d_lut_OAI21X1
AINVX1_20 [FIFO_INST_0_.fifo_inst.mem_1__3_] _138_ d_lut_INVX1
ANAND2X1_19 [FIFO_INST_0_.fifo_inst.mem_0__3_ _112_] _139_ d_lut_NAND2X1
AOAI21X1_74 [_138_ _115_ _139_] _140_ d_lut_OAI21X1
AOAI21X1_75 [_137_ _140_ _62_] _141_ d_lut_OAI21X1
ANAND2X1_20 [_134_ _141_] _10__3_ d_lut_NAND2X1
AOAI21X1_76 [FIFO_INST_0_.fifo_inst.empty_bF$buf0 _51_ FIFO_INST_0_.fifo_inst.router_data_out_4_] _142_ d_lut_OAI21X1
AINVX1_21 [FIFO_INST_0_.fifo_inst.mem_2__4_] _143_ d_lut_INVX1
ANAND3X1_6 [FIFO_INST_0_.fifo_inst.mem_3__4_ FIFO_INST_0_.fifo_inst.rd_ptr_1_ FIFO_INST_0_.fifo_inst.rd_ptr_0_] _144_ d_lut_NAND3X1
AOAI21X1_77 [_143_ _108_ _144_] _145_ d_lut_OAI21X1
AINVX1_22 [FIFO_INST_0_.fifo_inst.mem_1__4_] _146_ d_lut_INVX1
ANAND2X1_21 [FIFO_INST_0_.fifo_inst.mem_0__4_ _112_] _147_ d_lut_NAND2X1
AOAI21X1_78 [_146_ _115_ _147_] _148_ d_lut_OAI21X1
AOAI21X1_79 [_145_ _148_ _62_] _149_ d_lut_OAI21X1
ANAND2X1_22 [_142_ _149_] _10__4_ d_lut_NAND2X1
AOAI21X1_80 [FIFO_INST_0_.fifo_inst.empty_bF$buf3 _51_ FIFO_INST_0_.fifo_inst.router_data_out_5_] _150_ d_lut_OAI21X1
AINVX1_23 [FIFO_INST_0_.fifo_inst.mem_2__5_] _151_ d_lut_INVX1
ANAND3X1_7 [FIFO_INST_0_.fifo_inst.mem_3__5_ FIFO_INST_0_.fifo_inst.rd_ptr_1_ FIFO_INST_0_.fifo_inst.rd_ptr_0_] _152_ d_lut_NAND3X1
AOAI21X1_81 [_151_ _108_ _152_] _153_ d_lut_OAI21X1
AINVX1_24 [FIFO_INST_0_.fifo_inst.mem_1__5_] _154_ d_lut_INVX1
ANAND2X1_23 [FIFO_INST_0_.fifo_inst.mem_0__5_ _112_] _155_ d_lut_NAND2X1
AOAI21X1_82 [_154_ _115_ _155_] _156_ d_lut_OAI21X1
AOAI21X1_83 [_153_ _156_ _62_] _157_ d_lut_OAI21X1
ANAND2X1_24 [_150_ _157_] _10__5_ d_lut_NAND2X1
AXNOR2X1_1 [_16__bF$buf1 FIFO_INST_0_.fifo_inst.wr_ptr_0_] _11__0_ d_lut_XNOR2X1
ANOR2X1_10 [_21_ _16__bF$buf0] _158_ d_lut_NOR2X1
AXNOR2X1_2 [_158_ _20_] _11__1_ d_lut_XNOR2X1
AXNOR2X1_3 [_62_ _107_] _9__0_ d_lut_XNOR2X1
AOAI21X1_84 [_107_ _53_ FIFO_INST_0_.fifo_inst.rd_ptr_1_] _159_ d_lut_OAI21X1
AOAI21X1_85 [_53_ _115_ _159_] _9__1_ d_lut_OAI21X1
AOAI21X1_86 [FIFO_INST_0_.fifo_inst.empty_bF$buf2 _51_ FIFO_INST_0_.fifo_inst.pe_data_out_0_] _160_ d_lut_OAI21X1
ANAND2X1_25 [_160_ _117_] _8__0_ d_lut_NAND2X1
AOAI21X1_87 [FIFO_INST_0_.fifo_inst.empty_bF$buf1 _51_ FIFO_INST_0_.fifo_inst.pe_data_out_1_] _161_ d_lut_OAI21X1
ANAND2X1_26 [_161_ _125_] _8__1_ d_lut_NAND2X1
AOAI21X1_88 [FIFO_INST_0_.fifo_inst.empty_bF$buf0 _51_ FIFO_INST_0_.fifo_inst.pe_data_out_2_] _162_ d_lut_OAI21X1
ANAND2X1_27 [_162_ _133_] _8__2_ d_lut_NAND2X1
AOAI21X1_89 [FIFO_INST_0_.fifo_inst.empty_bF$buf3 _51_ FIFO_INST_0_.fifo_inst.pe_data_out_3_] _163_ d_lut_OAI21X1
ANAND2X1_28 [_163_ _141_] _8__3_ d_lut_NAND2X1
AINVX8_1 [rst] _12_ d_lut_INVX8
ADFFPOSX1_1 _4__0_ clk_bF$buf41 NULL NULL FIFO_INST_0_.fifo_inst.mem_0__0_ NULL ddflop
ADFFPOSX1_2 _4__1_ clk_bF$buf40 NULL NULL FIFO_INST_0_.fifo_inst.mem_0__1_ NULL ddflop
ADFFPOSX1_3 _4__2_ clk_bF$buf39 NULL NULL FIFO_INST_0_.fifo_inst.mem_0__2_ NULL ddflop
ADFFPOSX1_4 _4__3_ clk_bF$buf38 NULL NULL FIFO_INST_0_.fifo_inst.mem_0__3_ NULL ddflop
ADFFPOSX1_5 _4__4_ clk_bF$buf37 NULL NULL FIFO_INST_0_.fifo_inst.mem_0__4_ NULL ddflop
ADFFPOSX1_6 _4__5_ clk_bF$buf36 NULL NULL FIFO_INST_0_.fifo_inst.mem_0__5_ NULL ddflop
ADFFPOSX1_7 _5__0_ clk_bF$buf35 NULL NULL FIFO_INST_0_.fifo_inst.mem_1__0_ NULL ddflop
ADFFPOSX1_8 _5__1_ clk_bF$buf34 NULL NULL FIFO_INST_0_.fifo_inst.mem_1__1_ NULL ddflop
ADFFPOSX1_9 _5__2_ clk_bF$buf33 NULL NULL FIFO_INST_0_.fifo_inst.mem_1__2_ NULL ddflop
ADFFPOSX1_10 _5__3_ clk_bF$buf32 NULL NULL FIFO_INST_0_.fifo_inst.mem_1__3_ NULL ddflop
ADFFPOSX1_11 _5__4_ clk_bF$buf31 NULL NULL FIFO_INST_0_.fifo_inst.mem_1__4_ NULL ddflop
ADFFPOSX1_12 _5__5_ clk_bF$buf30 NULL NULL FIFO_INST_0_.fifo_inst.mem_1__5_ NULL ddflop
ADFFPOSX1_13 _6__0_ clk_bF$buf29 NULL NULL FIFO_INST_0_.fifo_inst.mem_2__0_ NULL ddflop
ADFFPOSX1_14 _6__1_ clk_bF$buf28 NULL NULL FIFO_INST_0_.fifo_inst.mem_2__1_ NULL ddflop
ADFFPOSX1_15 _6__2_ clk_bF$buf27 NULL NULL FIFO_INST_0_.fifo_inst.mem_2__2_ NULL ddflop
ADFFPOSX1_16 _6__3_ clk_bF$buf26 NULL NULL FIFO_INST_0_.fifo_inst.mem_2__3_ NULL ddflop
ADFFPOSX1_17 _6__4_ clk_bF$buf25 NULL NULL FIFO_INST_0_.fifo_inst.mem_2__4_ NULL ddflop
ADFFPOSX1_18 _6__5_ clk_bF$buf24 NULL NULL FIFO_INST_0_.fifo_inst.mem_2__5_ NULL ddflop
ADFFPOSX1_19 _7__0_ clk_bF$buf23 NULL NULL FIFO_INST_0_.fifo_inst.mem_3__0_ NULL ddflop
ADFFPOSX1_20 _7__1_ clk_bF$buf22 NULL NULL FIFO_INST_0_.fifo_inst.mem_3__1_ NULL ddflop
ADFFPOSX1_21 _7__2_ clk_bF$buf21 NULL NULL FIFO_INST_0_.fifo_inst.mem_3__2_ NULL ddflop
ADFFPOSX1_22 _7__3_ clk_bF$buf20 NULL NULL FIFO_INST_0_.fifo_inst.mem_3__3_ NULL ddflop
ADFFPOSX1_23 _7__4_ clk_bF$buf19 NULL NULL FIFO_INST_0_.fifo_inst.mem_3__4_ NULL ddflop
ADFFPOSX1_24 _7__5_ clk_bF$buf18 NULL NULL FIFO_INST_0_.fifo_inst.mem_3__5_ NULL ddflop
ADFFSR_1 _3_ clk_bF$buf17 ~vdd ~_12__bF$buf3 FIFO_INST_0_.fifo_inst.full NULL ddflop
ADFFSR_2 _2_ clk_bF$buf16 ~_12__bF$buf2 ~vdd FIFO_INST_0_.fifo_inst.empty NULL ddflop
ADFFSR_3 _8__0_ clk_bF$buf15 ~vdd ~_12__bF$buf1 FIFO_INST_0_.fifo_inst.pe_data_out_0_ NULL ddflop
ADFFSR_4 _8__1_ clk_bF$buf14 ~vdd ~_12__bF$buf0 FIFO_INST_0_.fifo_inst.pe_data_out_1_ NULL ddflop
ADFFSR_5 _8__2_ clk_bF$buf13 ~vdd ~_12__bF$buf3 FIFO_INST_0_.fifo_inst.pe_data_out_2_ NULL ddflop
ADFFSR_6 _8__3_ clk_bF$buf12 ~vdd ~_12__bF$buf2 FIFO_INST_0_.fifo_inst.pe_data_out_3_ NULL ddflop
ADFFSR_7 _10__0_ clk_bF$buf11 ~vdd ~_12__bF$buf1 FIFO_INST_0_.fifo_inst.router_data_out_0_ NULL ddflop
ADFFSR_8 _10__1_ clk_bF$buf10 ~vdd ~_12__bF$buf0 FIFO_INST_0_.fifo_inst.router_data_out_1_ NULL ddflop
ADFFSR_9 _10__2_ clk_bF$buf9 ~vdd ~_12__bF$buf3 FIFO_INST_0_.fifo_inst.router_data_out_2_ NULL ddflop
ADFFSR_10 _10__3_ clk_bF$buf8 ~vdd ~_12__bF$buf2 FIFO_INST_0_.fifo_inst.router_data_out_3_ NULL ddflop
ADFFSR_11 _10__4_ clk_bF$buf7 ~vdd ~_12__bF$buf1 FIFO_INST_0_.fifo_inst.router_data_out_4_ NULL ddflop
ADFFSR_12 _10__5_ clk_bF$buf6 ~vdd ~_12__bF$buf0 FIFO_INST_0_.fifo_inst.router_data_out_5_ NULL ddflop
ADFFSR_13 _9__0_ clk_bF$buf5 ~vdd ~_12__bF$buf3 FIFO_INST_0_.fifo_inst.rd_ptr_0_ NULL ddflop
ADFFSR_14 _9__1_ clk_bF$buf4 ~vdd ~_12__bF$buf2 FIFO_INST_0_.fifo_inst.rd_ptr_1_ NULL ddflop
ADFFSR_15 _11__0_ clk_bF$buf3 ~vdd ~_12__bF$buf1 FIFO_INST_0_.fifo_inst.wr_ptr_0_ NULL ddflop
ADFFSR_16 _11__1_ clk_bF$buf2 ~vdd ~_12__bF$buf0 FIFO_INST_0_.fifo_inst.wr_ptr_1_ NULL ddflop
ADFFSR_17 _1__0_ clk_bF$buf1 ~vdd ~_12__bF$buf3 FIFO_INST_0_.fifo_inst.count_0_ NULL ddflop
ADFFSR_18 _1__1_ clk_bF$buf0 ~vdd ~_12__bF$buf2 FIFO_INST_0_.fifo_inst.count_1_ NULL ddflop
ADFFSR_19 _1__2_ clk_bF$buf41 ~vdd ~_12__bF$buf1 FIFO_INST_0_.fifo_inst.count_2_ NULL ddflop
AOR2X2_3 [FIFO_INST_1_.fifo_inst.count_1_ FIFO_INST_1_.fifo_inst.count_0_] _176_ d_lut_OR2X2
ANOR2X1_11 [FIFO_INST_1_.fifo_inst.count_2_ _176_] _165_ d_lut_NOR2X1
AINVX1_25 [FIFO_INST_1_.fifo_inst.count_2_] _177_ d_lut_INVX1
ANOR2X1_12 [_177_ _176_] _166_ d_lut_NOR2X1
AINVX1_26 [FIFO_INST_1_.fifo_inst.full_bF$buf4] _178_ d_lut_INVX1
AOAI21X1_90 [FIFO_INST_1_.fifo_inst.router_wr_en FIFO_INST_1_.fifo_inst.pe_wr_en _178_] _179_ d_lut_OAI21X1
AINVX1_27 [FIFO_INST_1_.fifo_inst.router_data_in_0_] _180_ d_lut_INVX1