*SPEF "IEEE 1481.1999"
*DESIGN "noc_top"
*DATE "14:35:06 Tuesday April 01, 2025"
*VENDOR "unknown"
*PROGRAM "qrouter"
*VERSION "unknown"
*DESIGN_FLOW "qflow"
*DIVIDER /
*DELIMITER :
*BUS_DELIMITER <>
*T_UNIT 1 PS
*C_UNIT 1 FF
*R_UNIT 1 OHM
*L_UNIT 1 HENRY

*NAME_MAP
*1 FIFO_INST[0]_fifo_inst_pe_wr_en
*2 DFFSR_87
*3 NAND2X1_2
*4 NOR2X1_4
*5 OAI21X1_5
*6 OAI21X1_1
*7 NAND2X1_6
*8 NAND2X1_4
*9 OAI21X1_17
*10 OAI21X1_11
*11 OAI21X1_2
*12 OAI21X1_357
*13 OAI21X1_14
*14 NAND2X1_5
*15 NAND2X1_1
*16 NAND2X1_3
*17 OAI21X1_8
*18 FIFO_INST[1]_fifo_inst_pe_wr_en
*19 DFFSR_101
*20 NAND2X1_29
*21 OAI21X1_100
*22 OAI21X1_97
*23 OAI21X1_106
*24 NAND2X1_33
*25 OAI21X1_103
*26 OAI21X1_94
*27 NAND2X1_31
*28 NAND2X1_30
*29 NAND2X1_34
*30 OAI21X1_90
*31 NAND2X1_32
*32 OAI21X1_374
*33 NOR2X1_14
*34 OAI21X1_91
*35 FIFO_INST[2]_fifo_inst_pe_wr_en
*36 DFFSR_115
*37 OAI21X1_391
*38 OAI21X1_189
*39 NAND2X1_60
*40 NAND2X1_57
*41 OAI21X1_183
*42 NAND2X1_58
*43 NAND2X1_61
*44 NAND2X1_59
*45 NAND2X1_62
*46 NOR2X1_24
*47 OAI21X1_195
*48 OAI21X1_179
*49 OAI21X1_186
*50 OAI21X1_192
*51 OAI21X1_180
*52 FIFO_INST[3]_fifo_inst_pe_wr_en
*53 DFFSR_129
*54 OAI21X1_408
*55 NAND2X1_85
*56 OAI21X1_278
*57 NAND2X1_90
*58 OAI21X1_275
*59 NAND2X1_87
*60 OAI21X1_284
*61 OAI21X1_269
*62 NOR2X1_34
*63 OAI21X1_268
*64 OAI21X1_281
*65 OAI21X1_272
*66 NAND2X1_86
*67 NAND2X1_89
*68 NAND2X1_88
*69 _658_
*70 INVX8_5
*71 DFFSR_87
*72 DFFSR_82
*73 DFFSR_86
*74 DFFSR_84
*75 DFFSR_89
*76 DFFSR_85
*77 DFFSR_81
*78 DFFSR_83
*79 DFFSR_78
*80 DFFSR_77
*81 DFFSR_90
*82 DFFSR_88
*83 DFFSR_79
*84 DFFSR_80
*85 _686_
*86 INVX8_6
*87 DFFSR_101
*88 DFFSR_93
*89 DFFSR_95
*90 DFFSR_103
*91 DFFSR_99
*92 DFFSR_98
*93 DFFSR_100
*94 DFFSR_96
*95 DFFSR_97
*96 DFFSR_91
*97 DFFSR_104
*98 DFFSR_102
*99 DFFSR_92
*100 DFFSR_94
*101 _714_
*102 INVX8_7
*103 DFFSR_106
*104 DFFSR_107
*105 DFFSR_117
*106 DFFSR_112
*107 DFFSR_109
*108 DFFSR_113
*109 DFFSR_110
*110 DFFSR_111
*111 DFFSR_114
*112 DFFSR_115
*113 DFFSR_118
*114 DFFSR_116
*115 DFFSR_105
*116 DFFSR_108
*117 _742_
*118 INVX8_8
*119 DFFSR_130
*120 DFFSR_121
*121 DFFSR_120
*122 DFFSR_119
*123 DFFSR_122
*124 DFFSR_126
*125 DFFSR_129
*126 DFFSR_131
*127 DFFSR_128
*128 DFFSR_125
*129 DFFSR_124
*130 DFFSR_127
*131 DFFSR_123
*132 DFFSR_132
*133 _51_
*134 NOR2X1_5
*135 OR2X2_2
*136 OAI21X1_72
*137 NOR2X1_6
*138 OAI21X1_89
*139 OAI21X1_20
*140 OAI21X1_87
*141 OAI21X1_88
*142 OAI21X1_68
*143 OAI21X1_86
*144 OAI21X1_76
*145 OAI21X1_80
*146 OAI21X1_60
*147 OAI21X1_64
*148 _214_
*149 NOR2X1_15
*150 OAI21X1_161
*151 OAI21X1_149
*152 OAI21X1_177
*153 OAI21X1_169
*154 OR2X2_4
*155 OAI21X1_176
*156 OAI21X1_109
*157 NOR2X1_16
*158 OAI21X1_175
*159 OAI21X1_153
*160 OAI21X1_165
*161 OAI21X1_157
*162 OAI21X1_178
*163 _377_
*164 NOR2X1_25
*165 OAI21X1_258
*166 NOR2X1_26
*167 OAI21X1_198
*168 OR2X2_6
*169 OAI21X1_266
*170 OAI21X1_264
*171 OAI21X1_265
*172 OAI21X1_242
*173 OAI21X1_246
*174 OAI21X1_250
*175 OAI21X1_267
*176 OAI21X1_238
*177 OAI21X1_254
*178 _540_
*179 NOR2X1_35
*180 OAI21X1_335
*181 OAI21X1_347
*182 OAI21X1_327
*183 OAI21X1_287
*184 OAI21X1_354
*185 OAI21X1_339
*186 OAI21X1_331
*187 OAI21X1_343
*188 OR2X2_8
*189 OAI21X1_353
*190 NOR2X1_36
*191 OAI21X1_356
*192 OAI21X1_355
*193 arb_inst_start_idx[0]
*194 DFFSR_138
*195 NAND3X1_29
*196 NAND2X1_139
*197 NAND3X1_36
*198 NAND3X1_31
*199 AOI21X1_7
*200 NOR2X1_41
*201 NOR2X1_49
*202 AND2X2_5
*203 NAND2X1_134
*204 NAND2X1_144
*205 OAI21X1_440
*206 XNOR2X1_13
*207 INVX2_6
*208 _905_
*209 INVX4_3
*210 OAI21X1_446
*211 NOR2X1_55
*212 NAND2X1_167
*213 NAND2X1_182
*214 NAND2X1_176
*215 NAND2X1_170
*216 OAI22X1_8
*217 NAND2X1_173
*218 OAI22X1_7
*219 NAND2X1_179
*220 OAI22X1_6
*221 OAI22X1_9
*222 NAND2X1_160
*223 arb_inst_start_idx[1]
*224 DFFSR_139
*225 OAI21X1_426
*226 NAND2X1_138
*227 OAI21X1_425
*228 NAND2X1_136
*229 NAND2X1_134
*230 NAND2X1_133
*231 NOR2X1_41
*232 NOR2X1_48
*233 INVX4_1
*234 NOR2X1_50
*235 OAI21X1_434
*236 AND2X2_5
*237 _949_
*238 NOR2X1_55
*239 AOI21X1_13
*240 NOR2X1_57
*241 AOI21X1_12
*242 AOI21X1_14
*243 NOR2X1_58
*244 AOI21X1_16
*245 NOR2X1_61
*246 NOR2X1_60
*247 NOR2X1_59
*248 AOI21X1_15
*249 AOI21X1_17
*250 NOR2X1_56
*251 _842_
*252 NOR2X1_41
*253 AOI21X1_5
*254 NAND2X1_135
*255 AOI21X1_9
*256 AOI22X1_14
*257 NAND2X1_155
*258 AOI22X1_11
*259 AOI22X1_6
*260 AOI22X1_3
*261 AOI22X1_9
*262 AOI22X1_17
*263 NAND2X1_149
*264 FIFO_INST[0]_fifo_inst_rd_ptr[1]
*265 DFFSR_14
*266 NAND3X1_3
*267 OAI21X1_84
*268 INVX1_14
*269 NAND2X1_11
*270 NOR2X1_9
*271 NAND3X1_4
*272 NAND3X1_6
*273 NAND3X1_7
*274 NAND3X1_2
*275 NAND3X1_5
*276 rst
*277 INVX8_7
*278 INVX8_3
*279 INVX4_2
*280 INVX8_6
*281 INVX8_2
*282 INVX8_5
*283 INVX8_9
*284 INVX8_8
*285 INVX8_4
*286 INVX8_1
*287 FIFO_INST[1]_fifo_inst_rd_ptr[1]
*288 DFFSR_33
*289 OAI21X1_173
*290 NAND3X1_14
*291 NAND3X1_13
*292 NAND3X1_10
*293 NAND2X1_39
*294 NOR2X1_19
*295 INVX1_38
*296 NAND3X1_11
*297 NAND3X1_12
*298 NAND3X1_9
*299 FIFO_INST[2]_fifo_inst_rd_ptr[1]
*300 DFFSR_52
*301 NAND3X1_18
*302 OAI21X1_262
*303 INVX1_62
*304 NAND3X1_21
*305 NAND3X1_17
*306 NAND2X1_67
*307 NAND3X1_20
*308 NAND3X1_16
*309 NOR2X1_29
*310 NAND3X1_19
*311 FIFO_INST[3]_fifo_inst_rd_ptr[1]
*312 DFFSR_71
*313 NAND3X1_27
*314 NOR2X1_39
*315 NAND3X1_25
*316 NAND3X1_24
*317 NAND3X1_23
*318 NAND3X1_26
*319 NAND3X1_28
*320 INVX1_86
*321 NAND2X1_95
*322 OAI21X1_351
*323 _890_
*324 NOR2X1_49
*325 NAND2X1_154
*326 AOI22X1_1
*327 NAND2X1_156
*328 AOI22X1_15
*329 AOI22X1_6
*330 AOI22X1_3
*331 AOI22X1_4
*332 AOI22X1_10
*333 AOI22X1_17
*334 OAI21X1_431
*335 router_inst_processing
*336 DFFSR_159
*337 INVX4_3
*338 NAND3X1_52
*339 OAI21X1_453
*340 OAI21X1_457
*341 OAI21X1_455
*342 NAND2X1_164
*343 NAND3X1_53
*344 OAI21X1_463
*345 OAI21X1_461
*346 OAI21X1_459
*347 PE_INST[0]_pe_busy
*348 DFFSR_89
*349 OAI21X1_370
*350 OAI21X1_366
*351 OAI21X1_362
*352 BUFX2_22
*353 NAND2X1_113
*354 OR2X2_9
*355 OAI21X1_368
*356 OAI21X1_372
*357 OAI21X1_364
*358 PE_INST[1]_pe_busy
*359 DFFSR_103
*360 OAI21X1_387
*361 OAI21X1_389
*362 NAND2X1_118
*363 BUFX2_23
*364 OAI21X1_381
*365 OAI21X1_383
*366 OR2X2_10
*367 OAI21X1_379
*368 OAI21X1_385
*369 PE_INST[2]_pe_busy
*370 DFFSR_117
*371 BUFX2_24
*372 OAI21X1_402
*373 NAND2X1_123
*374 OAI21X1_396
*375 OR2X2_11
*376 OAI21X1_398
*377 OAI21X1_400
*378 OAI21X1_404
*379 OAI21X1_406
*380 PE_INST[3]_pe_busy
*381 DFFSR_131
*382 OAI21X1_419
*383 OAI21X1_413
*384 BUFX2_25
*385 NAND2X1_128
*386 OR2X2_12
*387 OAI21X1_423
*388 OAI21X1_417
*389 OAI21X1_421
*390 OAI21X1_415
*391 FIFO_INST[0]_fifo_inst_rd_ptr[0]
*392 DFFSR_13
*393 NAND2X1_13
*394 NAND3X1_3
*395 INVX2_1
*396 NAND3X1_5
*397 NAND3X1_2
*398 NAND3X1_7
*399 NAND3X1_6
*400 NAND3X1_4
*401 NOR2X1_9
*402 FIFO_INST[1]_fifo_inst_rd_ptr[0]
*403 DFFSR_32
*404 INVX2_2
*405 NAND3X1_14
*406 NAND3X1_13
*407 NAND3X1_10
*408 NOR2X1_19
*409 NAND3X1_11
*410 NAND2X1_41
*411 NAND3X1_12
*412 NAND3X1_9
*413 FIFO_INST[2]_fifo_inst_rd_ptr[0]
*414 DFFSR_51
*415 NAND3X1_18
*416 NAND3X1_20
*417 NAND3X1_16
*418 INVX2_3
*419 NAND2X1_69
*420 NAND3X1_21
*421 NAND3X1_17
*422 NOR2X1_29
*423 NAND3X1_19
*424 FIFO_INST[3]_fifo_inst_rd_ptr[0]
*425 DFFSR_70
*426 NAND2X1_97
*427 NAND3X1_28
*428 NAND3X1_27
*429 NOR2X1_39
*430 NAND3X1_25
*431 NAND3X1_24
*432 NAND3X1_23
*433 NAND3X1_26
*434 INVX2_4
*435 _840_
*436 INVX4_1
*437 AOI21X1_6
*438 NAND2X1_144
*439 NAND2X1_146
*440 NAND3X1_31
*441 NAND3X1_37
*442 NAND3X1_36
*443 NAND3X1_32
*444 NAND3X1_29
*445 NOR2X1_49
*446 arb_dest
*447 DFFSR_134
*448 NAND3X1_41
*449 NAND2X1_147
*450 INVX1_148
*451 NAND2X1_140
*452 NAND3X1_53
*453 NOR2X1_54
*454 OR2X2_13
*455 NAND3X1_52
*456 BUFX2_26
*457 _889_
*458 NOR2X1_48
*459 OAI21X1_431
*460 NAND2X1_153
*461 AOI22X1_12
*462 AOI22X1_15
*463 NAND2X1_150
*464 AOI22X1_2
*465 AOI22X1_7
*466 AOI22X1_18
*467 AOI22X1_9
*468 _775_
*469 AND2X2_5
*470 AOI22X1_1
*471 AOI22X1_11
*472 AOI22X1_12
*473 AOI22X1_14
*474 AOI22X1_4
*475 AOI22X1_10
*476 AOI22X1_2
*477 AOI22X1_7
*478 AOI22X1_18
*479 _915_
*480 INVX4_4
*481 NAND3X1_69
*482 NAND3X1_63
*483 NAND3X1_54
*484 NAND3X1_57
*485 NAND3X1_66
*486 NAND2X1_165
*487 OAI21X1_447
*488 NAND3X1_60
*489 OAI21X1_448
*490 _916_
*491 INVX4_5
*492 OAI21X1_451
*493 OAI21X1_447
*494 NAND3X1_70
*495 NAND3X1_67
*496 NAND2X1_163
*497 NAND3X1_58
*498 NAND3X1_61
*499 NAND3X1_55
*500 NAND3X1_64
*501 _62_
*502 NOR2X1_6
*503 OAI21X1_23
*504 OAI21X1_83
*505 XNOR2X1_3
*506 OAI21X1_63
*507 OAI21X1_75
*508 OAI21X1_67
*509 OAI21X1_71
*510 OAI21X1_79
*511 _225_
*512 NOR2X1_16
*513 OAI21X1_112
*514 XNOR2X1_6
*515 OAI21X1_172
*516 OAI21X1_168
*517 OAI21X1_156
*518 OAI21X1_160
*519 OAI21X1_152
*520 OAI21X1_164
*521 _388_
*522 NOR2X1_26
*523 XNOR2X1_9
*524 OAI21X1_241
*525 OAI21X1_261
*526 OAI21X1_245
*527 OAI21X1_257
*528 OAI21X1_249
*529 OAI21X1_253
*530 OAI21X1_201
*531 _551_
*532 NOR2X1_36
*533 XNOR2X1_12
*534 OAI21X1_342
*535 OAI21X1_330
*536 OAI21X1_338
*537 OAI21X1_334
*538 OAI21X1_346
*539 OAI21X1_290
*540 OAI21X1_350
*541 PE_INST[0]_pe_rd_en_d
*542 DFFSR_90
*543 NAND2X1_115
*544 OAI21X1_358
*545 OAI21X1_361
*546 NAND2X1_116
*547 NAND2X1_117
*548 NAND2X1_114
*549 OAI21X1_360
*550 OAI21X1_359
*551 PE_INST[1]_pe_rd_en_d
*552 DFFSR_104
*553 NAND2X1_119
*554 NAND2X1_121
*555 OAI21X1_377
*556 OAI21X1_375
*557 NAND2X1_122
*558 OAI21X1_378
*559 OAI21X1_376
*560 NAND2X1_120
*561 PE_INST[2]_pe_rd_en_d
*562 DFFSR_118
*563 OAI21X1_393
*564 OAI21X1_394
*565 NAND2X1_126
*566 OAI21X1_392
*567 OAI21X1_395
*568 NAND2X1_127
*569 NAND2X1_124
*570 NAND2X1_125
*571 PE_INST[3]_pe_rd_en_d
*572 DFFSR_132
*573 NAND2X1_130
*574 OAI21X1_410
*575 OAI21X1_409
*576 NAND2X1_129
*577 NAND2X1_132
*578 OAI21X1_412
*579 OAI21X1_411
*580 NAND2X1_131
*581 _906_
*582 NAND2X1_160
*583 OAI22X1_7
*584 OAI22X1_6
*585 OAI21X1_450
*586 OAI22X1_9
*587 OAI21X1_445
*588 OAI22X1_8
*589 INVX1_157
*590 OAI21X1_444
*591 clk_hier0_bF_buf5
*592 BUFX4_1
*593 CLKBUF1_16
*594 CLKBUF1_22
*595 CLKBUF1_1
*596 CLKBUF1_42
*597 CLKBUF1_13
*598 CLKBUF1_2
*599 CLKBUF1_37
*600 clk_hier0_bF_buf4
*601 BUFX4_2
*602 CLKBUF1_20
*603 CLKBUF1_28
*604 CLKBUF1_11
*605 CLKBUF1_8
*606 CLKBUF1_26
*607 CLKBUF1_17
*608 CLKBUF1_31
*609 clk_hier0_bF_buf3
*610 BUFX4_3
*611 CLKBUF1_12
*612 CLKBUF1_41
*613 CLKBUF1_32
*614 CLKBUF1_4
*615 CLKBUF1_3
*616 CLKBUF1_38
*617 CLKBUF1_15
*618 clk_hier0_bF_buf2
*619 BUFX4_4
*620 CLKBUF1_36
*621 CLKBUF1_24
*622 CLKBUF1_25
*623 CLKBUF1_18
*624 CLKBUF1_21
*625 CLKBUF1_35
*626 CLKBUF1_14
*627 clk_hier0_bF_buf1
*628 BUFX4_5
*629 CLKBUF1_9
*630 CLKBUF1_19
*631 CLKBUF1_34
*632 CLKBUF1_23
*633 CLKBUF1_10
*634 CLKBUF1_6
*635 CLKBUF1_27
*636 clk_hier0_bF_buf0
*637 BUFX4_6
*638 CLKBUF1_33
*639 CLKBUF1_7
*640 CLKBUF1_5
*641 CLKBUF1_40
*642 CLKBUF1_39
*643 CLKBUF1_29
*644 CLKBUF1_30
*645 FIFO_INST[3]_fifo_inst_full_bF_buf4
*646 BUFX4_19
*647 OAI21X1_305
*648 OAI21X1_291
*649 INVX1_74
*650 OAI21X1_323
*651 OAI21X1_311
*652 OAI21X1_317
*653 OAI21X1_295
*654 FIFO_INST[3]_fifo_inst_full_bF_buf3
*655 BUFX4_20
*656 OAI21X1_301
*657 OAI21X1_299
*658 OAI21X1_293
*659 MUX2X1_105
*660 OAI21X1_321
*661 OAI21X1_285
*662 OAI21X1_282
*663 FIFO_INST[3]_fifo_inst_full_bF_buf2
*664 BUFX4_21
*665 OAI21X1_270
*666 OAI21X1_273
*667 OAI21X1_279
*668 OAI21X1_309
*669 OAI21X1_319
*670 OAI21X1_313
*671 OAI21X1_307
*672 FIFO_INST[3]_fifo_inst_full_bF_buf1
*673 BUFX4_22
*674 OAI21X1_315
*675 OAI21X1_423
*676 OR2X2_12
*677 OAI21X1_303
*678 OAI21X1_417
*679 OAI21X1_421
*680 OAI21X1_415
*681 FIFO_INST[3]_fifo_inst_full_bF_buf0
*682 BUFX4_23
*683 OAI21X1_276
*684 OAI21X1_325
*685 OAI21X1_408
*686 NAND2X1_128
*687 OAI21X1_413
*688 OAI21X1_419
*689 OAI21X1_297
*690 clk_bF_buf41
*691 CLKBUF1_1
*692 DFFPOSX1_26
*693 DFFPOSX1_35
*694 DFFPOSX1_38
*695 DFFPOSX1_44
*696 DFFPOSX1_27
*697 DFFPOSX1_29
*698 DFFPOSX1_30
*699 clk_bF_buf40
*700 CLKBUF1_2
*701 DFFSR_138
*702 DFFSR_48
*703 DFFSR_44
*704 DFFSR_105
*705 DFFSR_108
*706 DFFSR_47
*707 DFFSR_106
*708 clk_bF_buf39
*709 CLKBUF1_3
*710 DFFSR_7
*711 DFFSR_29
*712 DFFSR_28
*713 DFFSR_143
*714 DFFSR_26
*715 DFFSR_24
*716 DFFSR_27
*717 clk_bF_buf38
*718 CLKBUF1_4
*719 DFFSR_167
*720 DFFSR_145
*721 DFFSR_164
*722 DFFSR_161
*723 DFFSR_141
*724 DFFSR_166
*725 DFFSR_171
*726 clk_bF_buf37
*727 CLKBUF1_5
*728 DFFSR_130
*729 DFFSR_132
*730 DFFSR_121
*731 DFFSR_62
*732 DFFSR_114
*733 DFFSR_111
*734 DFFPOSX1_65
*735 clk_bF_buf36
*736 CLKBUF1_6
*737 DFFSR_113
*738 DFFSR_110
*739 DFFPOSX1_59
*740 DFFPOSX1_68
*741 DFFPOSX1_67
*742 DFFPOSX1_61
*743 DFFPOSX1_55
*744 clk_bF_buf35
*745 CLKBUF1_7
*746 DFFSR_69
*747 DFFSR_74
*748 DFFSR_66
*749 DFFPOSX1_60
*750 DFFPOSX1_72
*751 DFFPOSX1_66
*752 DFFSR_172
*753 clk_bF_buf34
*754 CLKBUF1_8
*755 DFFPOSX1_74
*756 DFFPOSX1_91
*757 DFFPOSX1_79
*758 DFFSR_128
*759 DFFSR_125
*760 DFFPOSX1_73
*761 DFFPOSX1_83
*762 clk_bF_buf33
*763 CLKBUF1_9
*764 DFFSR_45
*765 DFFSR_116
*766 DFFSR_118
*767 DFFSR_46
*768 DFFSR_42
*769 DFFSR_40
*770 DFFSR_57
*771 clk_bF_buf32
*772 CLKBUF1_10
*773 DFFSR_112
*774 DFFSR_117
*775 DFFSR_53
*776 DFFSR_56
*777 DFFSR_54
*778 DFFPOSX1_70
*779 DFFPOSX1_58
*780 clk_bF_buf31
*781 CLKBUF1_11
*782 DFFPOSX1_93
*783 DFFPOSX1_78
*784 DFFPOSX1_75
*785 DFFPOSX1_94
*786 DFFPOSX1_88
*787 DFFSR_131
*788 DFFSR_129
*789 clk_bF_buf30
*790 CLKBUF1_12
*791 DFFSR_134
*792 DFFSR_135
*793 DFFSR_133
*794 DFFSR_137
*795 DFFSR_169
*796 DFFSR_168
*797 DFFSR_144
*798 clk_bF_buf29
*799 CLKBUF1_13
*800 DFFSR_136
*801 DFFSR_101
*802 DFFPOSX1_46
*803 DFFPOSX1_40
*804 DFFPOSX1_31
*805 DFFPOSX1_28
*806 DFFPOSX1_43
*807 clk_bF_buf28
*808 CLKBUF1_14
*809 DFFSR_14
*810 DFFSR_9
*811 DFFSR_13
*812 DFFSR_3
*813 DFFSR_12
*814 DFFSR_162
*815 DFFSR_15
*816 clk_bF_buf27
*817 CLKBUF1_15
*818 DFFSR_6
*819 DFFSR_2
*820 DFFSR_19
*821 DFFSR_4
*822 DFFSR_23
*823 DFFSR_1
*824 DFFSR_18
*825 clk_bF_buf26
*826 CLKBUF1_16
*827 DFFPOSX1_41
*828 DFFPOSX1_48
*829 DFFPOSX1_39
*830 DFFPOSX1_47
*831 DFFSR_20
*832 DFFSR_38
*833 DFFSR_33
*834 clk_bF_buf25
*835 CLKBUF1_17
*836 DFFSR_160
*837 DFFSR_165
*838 DFFSR_163
*839 DFFSR_151
*840 DFFSR_65
*841 DFFSR_142
*842 DFFSR_146
*843 clk_bF_buf24
*844 CLKBUF1_18
*845 DFFPOSX1_23
*846 DFFPOSX1_21
*847 DFFSR_85
*848 DFFSR_83
*849 DFFSR_81
*850 DFFPOSX1_11
*851 DFFPOSX1_24
*852 clk_bF_buf23
*853 CLKBUF1_19
*854 DFFSR_52
*855 DFFSR_50
*856 DFFPOSX1_56
*857 DFFPOSX1_69
*858 DFFSR_49
*859 DFFPOSX1_62
*860 DFFSR_148
*861 clk_bF_buf22
*862 CLKBUF1_20
*863 DFFSR_127
*864 DFFSR_124
*865 DFFSR_156
*866 DFFSR_158
*867 DFFPOSX1_80
*868 DFFSR_153
*869 DFFPOSX1_86
*870 clk_bF_buf21
*871 CLKBUF1_21
*872 DFFPOSX1_17
*873 DFFPOSX1_14
*874 DFFPOSX1_18
*875 DFFPOSX1_15
*876 DFFPOSX1_2
*877 DFFPOSX1_3
*878 DFFPOSX1_9
*879 clk_bF_buf20
*880 CLKBUF1_22
*881 DFFSR_37
*882 DFFSR_94
*883 DFFSR_34
*884 DFFSR_92
*885 DFFSR_80
*886 DFFSR_79
*887 DFFSR_36
*888 FIFO_INST[1]_fifo_inst_full_bF_buf4
*889 BUFX4_31
*890 OAI21X1_145
*891 OAI21X1_147
*892 OAI21X1_117
*893 OAI21X1_141
*894 OAI21X1_121
*895 OAI21X1_104
*896 OAI21X1_107
*897 FIFO_INST[1]_fifo_inst_full_bF_buf3
*898 BUFX4_32
*899 OAI21X1_387
*900 OAI21X1_389
*901 NAND2X1_118
*902 OAI21X1_129
*903 OAI21X1_135
*904 OAI21X1_385
*905 OAI21X1_374
*906 FIFO_INST[1]_fifo_inst_full_bF_buf2
*907 BUFX4_33
*908 OAI21X1_123
*909 OAI21X1_92
*910 OAI21X1_113
*911 MUX2X1_105
*912 OAI21X1_125
*913 OAI21X1_98
*914 OAI21X1_137
*915 FIFO_INST[1]_fifo_inst_full_bF_buf1
*916 BUFX4_34
*917 OAI21X1_127
*918 OAI21X1_383
*919 OAI21X1_381
*920 OAI21X1_139
*921 OAI21X1_115
*922 OAI21X1_133
*923 OAI21X1_95
*924 FIFO_INST[1]_fifo_inst_full_bF_buf0
*925 BUFX4_35
*926 OAI21X1_131
*927 OR2X2_10
*928 OAI21X1_379
*929 OAI21X1_101
*930 INVX1_26
*931 OAI21X1_119
*932 OAI21X1_143
*933 FIFO_INST[2]_fifo_inst_full_bF_buf4
*934 BUFX4_61
*935 OAI21X1_232
*936 OAI21X1_218
*937 OAI21X1_230
*938 OAI21X1_193
*939 OR2X2_11
*940 OAI21X1_228
*941 OAI21X1_234
*942 FIFO_INST[2]_fifo_inst_full_bF_buf3
*943 BUFX4_62
*944 OAI21X1_202
*945 OAI21X1_212
*946 OAI21X1_196
*947 OAI21X1_204
*948 MUX2X1_106
*949 OAI21X1_224
*950 INVX1_50
*951 FIFO_INST[2]_fifo_inst_full_bF_buf2
*952 BUFX4_63
*953 OAI21X1_208
*954 OAI21X1_396
*955 OAI21X1_220
*956 NAND2X1_123
*957 OAI21X1_391
*958 OAI21X1_190
*959 OAI21X1_402
*960 FIFO_INST[2]_fifo_inst_full_bF_buf1
*961 BUFX4_64
*962 OAI21X1_222
*963 OAI21X1_404
*964 OAI21X1_400
*965 OAI21X1_398
*966 OAI21X1_406
*967 OAI21X1_184
*968 OAI21X1_210
*969 FIFO_INST[2]_fifo_inst_full_bF_buf0
*970 BUFX4_65
*971 OAI21X1_206
*972 OAI21X1_181
*973 OAI21X1_226
*974 OAI21X1_236
*975 OAI21X1_214
*976 OAI21X1_216
*977 OAI21X1_187
*978 _904__bF_buf5
*979 BUFX4_66
*980 DFFSR_160
*981 DFFSR_146
*982 DFFSR_142
*983 DFFSR_165
*984 DFFSR_175
*985 DFFSR_170
*986 DFFSR_159
*987 _904__bF_buf4
*988 BUFX4_67
*989 DFFSR_174
*990 DFFSR_155
*991 DFFSR_140
*992 DFFSR_178
*993 DFFSR_177
*994 DFFSR_156
*995 DFFSR_176
*996 _904__bF_buf3
*997 BUFX4_68
*998 DFFSR_147
*999 DFFSR_150
*1000 DFFSR_152
*1001 DFFSR_148
*1002 DFFSR_172
*1003 DFFSR_168
*1004 DFFSR_169
*1005 FIFO_INST[0]_fifo_inst_full_bF_buf4
*1006 BUFX4_72
*1007 OAI21X1_44
*1008 OAI21X1_362
*1009 OAI21X1_366
*1010 OAI21X1_15
*1011 OAI21X1_9
*1012 OAI21X1_32
*1013 OAI21X1_370
*1014 FIFO_INST[0]_fifo_inst_full_bF_buf3
*1015 BUFX4_73
*1016 OAI21X1_48
*1017 NAND2X1_113
*1018 OAI21X1_357
*1019 OAI21X1_56
*1020 OAI21X1_3
*1021 OAI21X1_46
*1022 OAI21X1_18
*1023 FIFO_INST[0]_fifo_inst_full_bF_buf2
*1024 BUFX4_74
*1025 OAI21X1_58
*1026 OAI21X1_12
*1027 OAI21X1_54
*1028 OAI21X1_364
*1029 OR2X2_9
*1030 OAI21X1_368
*1031 OAI21X1_372
*1032 FIFO_INST[0]_fifo_inst_full_bF_buf1
*1033 BUFX4_75
*1034 OAI21X1_26
*1035 OAI21X1_40
*1036 OAI21X1_34
*1037 OAI21X1_28
*1038 OAI21X1_50
*1039 OAI21X1_6
*1040 OAI21X1_52
*1041 FIFO_INST[0]_fifo_inst_full_bF_buf0
*1042 BUFX4_76
*1043 OAI21X1_36
*1044 OAI21X1_38
*1045 OAI21X1_30
*1046 OAI21X1_42
*1047 INVX1_2
*1048 MUX2X1_106
*1049 OAI21X1_24
*1050 _115_
*1051 NAND2X1_13
*1052 OAI21X1_85
*1053 OAI21X1_66
*1054 OAI21X1_82
*1055 OAI21X1_62
*1056 OAI21X1_74
*1057 OAI21X1_70
*1058 OAI21X1_78
*1059 _278_
*1060 NAND2X1_41
*1061 OAI21X1_171
*1062 OAI21X1_159
*1063 OAI21X1_163
*1064 OAI21X1_167
*1065 OAI21X1_155
*1066 OAI21X1_151
*1067 OAI21X1_174
*1068 _441_
*1069 NAND2X1_69
*1070 OAI21X1_244
*1071 OAI21X1_263
*1072 OAI21X1_240
*1073 OAI21X1_260
*1074 OAI21X1_248
*1075 OAI21X1_256
*1076 OAI21X1_252
*1077 _604_
*1078 NAND2X1_97
*1079 OAI21X1_352
*1080 OAI21X1_341
*1081 OAI21X1_337
*1082 OAI21X1_349
*1083 OAI21X1_329
*1084 OAI21X1_333
*1085 OAI21X1_345
*1086 _659_
*1087 OR2X2_9
*1088 OAI21X1_373
*1089 OAI21X1_365
*1090 INVX1_97
*1091 OAI21X1_369
*1092 OAI21X1_371
*1093 OAI21X1_367
*1094 OAI21X1_363
*1095 _687_
*1096 OR2X2_10
*1097 INVX1_109
*1098 OAI21X1_380
*1099 OAI21X1_386
*1100 OAI21X1_388
*1101 OAI21X1_390
*1102 OAI21X1_382
*1103 OAI21X1_384
*1104 _715_
*1105 OR2X2_11
*1106 OAI21X1_405
*1107 OAI21X1_399
*1108 OAI21X1_401
*1109 OAI21X1_407
*1110 OAI21X1_397
*1111 INVX1_121
*1112 OAI21X1_403
*1113 _743_
*1114 OR2X2_12
*1115 OAI21X1_424
*1116 OAI21X1_418
*1117 OAI21X1_416
*1118 OAI21X1_422
*1119 INVX1_133
*1120 OAI21X1_414
*1121 OAI21X1_420
*1122 arb_inst_toggle
*1123 DFFSR_137
*1124 INVX1_145
*1125 OAI21X1_438
*1126 OAI21X1_436
*1127 OAI21X1_443
*1128 OAI21X1_432
*1129 OAI21X1_442
*1130 NAND2X1_143
*1131 _835_
*1132 INVX2_6
*1133 NAND2X1_159
*1134 NAND2X1_133
*1135 NAND3X1_32
*1136 NAND3X1_37
*1137 NOR2X1_48
*1138 NAND2X1_158
*1139 NAND2X1_137
*1140 _770_
*1141 INVX4_2
*1142 DFFSR_138
*1143 DFFSR_136
*1144 DFFSR_139
*1145 DFFSR_135
*1146 DFFSR_134
*1147 DFFSR_137
*1148 DFFSR_133
*1149 _908_
*1150 NAND3X1_52
*1151 MUX2X1_108
*1152 OAI21X1_444
*1153 MUX2X1_109
*1154 MUX2X1_111
*1155 MUX2X1_112
*1156 MUX2X1_107
*1157 MUX2X1_110
*1158 _911_
*1159 NAND3X1_53
*1160 MUX2X1_122
*1161 MUX2X1_121
*1162 MUX2X1_123
*1163 MUX2X1_119
*1164 MUX2X1_120
*1165 MUX2X1_124
*1166 OAI21X1_445
*1167 _920_
*1168 OR2X2_14
*1169 OAI22X1_8
*1170 OAI21X1_452
*1171 OAI21X1_454
*1172 OAI21X1_460
*1173 OAI21X1_462
*1174 OAI21X1_458
*1175 OAI21X1_456
*1176 _924_
*1177 NAND2X1_164
*1178 MUX2X1_116
*1179 OAI21X1_450
*1180 MUX2X1_114
*1181 MUX2X1_118
*1182 MUX2X1_113
*1183 MUX2X1_115
*1184 MUX2X1_117
*1185 clk
*1186 BUFX4_2
*1187 BUFX4_6
*1188 BUFX4_5
*1189 BUFX4_3
*1190 BUFX4_1
*1191 BUFX4_4
*1192 _16__bF_buf4
*1193 BUFX4_10
*1194 OAI21X1_29
*1195 OAI21X1_27
*1196 OAI21X1_41
*1197 OAI21X1_35
*1198 OAI21X1_45
*1199 OAI21X1_51
*1200 _16__bF_buf3
*1201 BUFX4_11
*1202 MUX2X1_7
*1203 AOI21X1_1
*1204 AND2X2_1
*1205 OAI21X1_20
*1206 OAI21X1_53
*1207 OAI21X1_7
*1208 _16__bF_buf2
*1209 BUFX4_12
*1210 OAI21X1_39
*1211 OAI21X1_31
*1212 OAI21X1_37
*1213 OAI21X1_43
*1214 XNOR2X1_1
*1215 NOR2X1_10
*1216 _16__bF_buf1
*1217 BUFX4_13
*1218 OAI21X1_57
*1219 OAI21X1_4
*1220 OAI21X1_59
*1221 OAI21X1_13
*1222 OAI21X1_25
*1223 OAI21X1_55
*1224 _16__bF_buf0
*1225 BUFX4_14
*1226 OAI21X1_10
*1227 OAI21X1_47
*1228 OAI21X1_49
*1229 OAI21X1_19
*1230 OAI21X1_16
*1231 OAI21X1_33
*1232 _350__bF_buf3
*1233 BUFX4_15
*1234 OAI21X1_193
*1235 OAI21X1_228
*1236 OAI21X1_234
*1237 OAI21X1_230
*1238 OAI21X1_232
*1239 OAI21X1_218
*1240 _350__bF_buf2
*1241 BUFX4_16
*1242 OAI21X1_226
*1243 OAI21X1_206
*1244 OAI21X1_208
*1245 OAI21X1_190
*1246 OAI21X1_220
*1247 OAI21X1_236
*1248 _350__bF_buf1
*1249 BUFX4_17
*1250 OAI21X1_181
*1251 OAI21X1_187
*1252 OAI21X1_214
*1253 OAI21X1_216
*1254 OAI21X1_222
*1255 OAI21X1_184
*1256 _350__bF_buf0
*1257 BUFX4_18
*1258 OAI21X1_210
*1259 OAI21X1_224
*1260 OAI21X1_212
*1261 OAI21X1_202
*1262 OAI21X1_196
*1263 OAI21X1_204
*1264 clk_bF_buf19
*1265 CLKBUF1_23
*1266 DFFSR_115
*1267 DFFPOSX1_52
*1268 DFFPOSX1_57
*1269 DFFPOSX1_64
*1270 DFFPOSX1_63
*1271 DFFSR_109
*1272 clk_bF_buf18
*1273 CLKBUF1_24
*1274 DFFSR_87
*1275 DFFPOSX1_13
*1276 DFFPOSX1_19
*1277 DFFPOSX1_5
*1278 DFFPOSX1_12
*1279 DFFPOSX1_7
*1280 clk_bF_buf17
*1281 CLKBUF1_25
*1282 DFFPOSX1_4
*1283 DFFSR_84
*1284 DFFPOSX1_22
*1285 DFFPOSX1_6
*1286 DFFPOSX1_1
*1287 DFFSR_89
*1288 clk_bF_buf16
*1289 CLKBUF1_26
*1290 DFFPOSX1_90
*1291 DFFSR_58
*1292 DFFPOSX1_77
*1293 DFFPOSX1_85
*1294 DFFSR_154
*1295 DFFPOSX1_89
*1296 clk_bF_buf15
*1297 CLKBUF1_27
*1298 DFFPOSX1_50
*1299 DFFPOSX1_71
*1300 DFFPOSX1_49
*1301 DFFPOSX1_54
*1302 DFFPOSX1_53
*1303 DFFPOSX1_51
*1304 clk_bF_buf14
*1305 CLKBUF1_28
*1306 DFFSR_177
*1307 DFFSR_176
*1308 DFFSR_178
*1309 DFFSR_86
*1310 DFFSR_140
*1311 DFFSR_82
*1312 clk_bF_buf13
*1313 CLKBUF1_29
*1314 DFFSR_71
*1315 DFFSR_119
*1316 DFFSR_72
*1317 DFFSR_122
*1318 DFFSR_73
*1319 DFFSR_60
*1320 clk_bF_buf12
*1321 CLKBUF1_30
*1322 DFFPOSX1_92
*1323 DFFPOSX1_82
*1324 DFFSR_123
*1325 DFFSR_126
*1326 DFFPOSX1_84
*1327 DFFPOSX1_81
*1328 clk_bF_buf11
*1329 CLKBUF1_31
*1330 DFFSR_157
*1331 DFFSR_175
*1332 DFFSR_173
*1333 DFFSR_174
*1334 DFFSR_155
*1335 DFFSR_170
*1336 clk_bF_buf10
*1337 CLKBUF1_32
*1338 DFFSR_31
*1339 DFFPOSX1_42
*1340 DFFSR_91
*1341 DFFSR_32
*1342 DFFSR_21
*1343 DFFSR_22
*1344 clk_bF_buf9
*1345 CLKBUF1_33
*1346 DFFSR_150
*1347 DFFSR_64
*1348 DFFSR_152
*1349 DFFSR_67
*1350 DFFSR_147
*1351 DFFSR_149
*1352 clk_bF_buf8
*1353 CLKBUF1_34
*1354 DFFSR_107
*1355 DFFSR_43
*1356 DFFSR_41
*1357 DFFSR_55
*1358 DFFSR_39
*1359 DFFSR_51
*1360 clk_bF_buf7
*1361 CLKBUF1_35
*1362 DFFSR_88
*1363 DFFSR_5
*1364 DFFSR_90
*1365 DFFSR_77
*1366 DFFSR_78
*1367 DFFPOSX1_20
*1368 clk_bF_buf6
*1369 CLKBUF1_36
*1370 DFFPOSX1_10
*1371 DFFPOSX1_16
*1372 DFFPOSX1_8
*1373 DFFSR_159
*1374 DFFSR_16
*1375 DFFSR_11
*1376 clk_bF_buf5
*1377 CLKBUF1_37
*1378 DFFSR_93
*1379 DFFSR_95
*1380 DFFSR_103
*1381 DFFPOSX1_34
*1382 DFFSR_99
*1383 DFFPOSX1_33
*1384 clk_bF_buf4
*1385 CLKBUF1_38
*1386 DFFSR_102
*1387 DFFSR_104
*1388 DFFSR_25
*1389 DFFSR_17
*1390 DFFSR_8
*1391 DFFSR_10
*1392 clk_bF_buf3
*1393 CLKBUF1_39
*1394 DFFPOSX1_76
*1395 DFFPOSX1_95
*1396 DFFSR_76
*1397 DFFPOSX1_87
*1398 DFFSR_68
*1399 DFFSR_61
*1400 clk_bF_buf2
*1401 CLKBUF1_40
*1402 DFFSR_75
*1403 DFFSR_59
*1404 DFFSR_70
*1405 DFFPOSX1_96
*1406 DFFSR_63
*1407 DFFSR_120
*1408 clk_bF_buf1
*1409 CLKBUF1_41
*1410 DFFSR_30
*1411 DFFSR_35
*1412 DFFPOSX1_25
*1413 DFFSR_139
*1414 DFFPOSX1_45
*1415 DFFPOSX1_37
*1416 clk_bF_buf0
*1417 CLKBUF1_42
*1418 DFFPOSX1_32
*1419 DFFSR_97
*1420 DFFSR_96
*1421 DFFSR_100
*1422 DFFSR_98
*1423 DFFPOSX1_36
*1424 _179__bF_buf4
*1425 BUFX4_36
*1426 OAI21X1_136
*1427 OAI21X1_146
*1428 OAI21X1_148
*1429 OAI21X1_130
*1430 OAI21X1_102
*1431 OAI21X1_132
*1432 _179__bF_buf3
*1433 BUFX4_37
*1434 OAI21X1_105
*1435 AND2X2_2
*1436 AOI21X1_2
*1437 OAI21X1_109
*1438 MUX2X1_33
*1439 XNOR2X1_4
*1440 _179__bF_buf2
*1441 BUFX4_38
*1442 OAI21X1_128
*1443 OAI21X1_140
*1444 OAI21X1_116
*1445 OAI21X1_96
*1446 OAI21X1_134
*1447 OAI21X1_142
*1448 _179__bF_buf1
*1449 BUFX4_39
*1450 OAI21X1_124
*1451 NOR2X1_20
*1452 OAI21X1_126
*1453 OAI21X1_108
*1454 OAI21X1_122
*1455 OAI21X1_118
*1456 _179__bF_buf0
*1457 BUFX4_40
*1458 OAI21X1_120
*1459 OAI21X1_144
*1460 OAI21X1_138
*1461 OAI21X1_99
*1462 OAI21X1_114
*1463 OAI21X1_93
*1464 _24__bF_buf3
*1465 BUFX4_41
*1466 OAI21X1_32
*1467 OAI21X1_9
*1468 OAI21X1_15
*1469 OAI21X1_18
*1470 OAI21X1_44
*1471 OAI21X1_34
*1472 _24__bF_buf2
*1473 BUFX4_42
*1474 OAI21X1_52
*1475 OAI21X1_28
*1476 OAI21X1_26
*1477 OAI21X1_40
*1478 OAI21X1_50
*1479 OAI21X1_6
*1480 _24__bF_buf1
*1481 BUFX4_43
*1482 OAI21X1_46
*1483 OAI21X1_48
*1484 OAI21X1_58
*1485 OAI21X1_12
*1486 OAI21X1_56
*1487 OAI21X1_3
*1488 _24__bF_buf0
*1489 BUFX4_44
*1490 OAI21X1_24
*1491 OAI21X1_54
*1492 OAI21X1_42
*1493 OAI21X1_30
*1494 OAI21X1_38
*1495 OAI21X1_36
*1496 _505__bF_buf4
*1497 BUFX4_45
*1498 OAI21X1_324
*1499 OAI21X1_302
*1500 OAI21X1_300
*1501 OAI21X1_294
*1502 OAI21X1_292
*1503 OAI21X1_306
*1504 _505__bF_buf3
*1505 BUFX4_46
*1506 OAI21X1_286
*1507 NOR2X1_40
*1508 XNOR2X1_10
*1509 OAI21X1_308
*1510 OAI21X1_314
*1511 OAI21X1_274
*1512 _505__bF_buf2
*1513 BUFX4_47
*1514 OAI21X1_283
*1515 OAI21X1_322
*1516 AND2X2_4
*1517 MUX2X1_85
*1518 OAI21X1_287
*1519 AOI21X1_4
*1520 _505__bF_buf1
*1521 BUFX4_48
*1522 OAI21X1_271
*1523 OAI21X1_318
*1524 OAI21X1_312
*1525 OAI21X1_316
*1526 OAI21X1_296
*1527 OAI21X1_298
*1528 _505__bF_buf0
*1529 BUFX4_49
*1530 OAI21X1_310
*1531 OAI21X1_280
*1532 OAI21X1_320
*1533 OAI21X1_277
*1534 OAI21X1_304
*1535 OAI21X1_326
*1536 _187__bF_buf3
*1537 BUFX4_54
*1538 OAI21X1_117
*1539 OAI21X1_141
*1540 OAI21X1_107
*1541 OAI21X1_121
*1542 OAI21X1_104
*1543 OAI21X1_95
*1544 _187__bF_buf2
*1545 BUFX4_55
*1546 OAI21X1_115
*1547 OAI21X1_133
*1548 OAI21X1_139
*1549 OAI21X1_145
*1550 OAI21X1_147
*1551 OAI21X1_127
*1552 _187__bF_buf1
*1553 BUFX4_56
*1554 OAI21X1_131
*1555 OAI21X1_101
*1556 OAI21X1_119
*1557 OAI21X1_143
*1558 OAI21X1_129
*1559 OAI21X1_135
*1560 _187__bF_buf0
*1561 BUFX4_57
*1562 OAI21X1_125
*1563 OAI21X1_137
*1564 OAI21X1_98
*1565 OAI21X1_123
*1566 OAI21X1_92
*1567 OAI21X1_113
*1568 _904_
*1569 INVX8_9
*1570 BUFX4_67
*1571 BUFX4_66
*1572 BUFX4_71
*1573 BUFX4_69
*1574 BUFX4_68
*1575 BUFX4_70
*1576 _904__bF_buf2
*1577 BUFX4_69
*1578 DFFSR_149
*1579 DFFSR_151
*1580 DFFSR_141
*1581 DFFSR_161
*1582 DFFSR_164
*1583 DFFSR_145
*1584 _904__bF_buf1
*1585 BUFX4_70
*1586 DFFSR_154
*1587 DFFSR_173
*1588 DFFSR_163
*1589 DFFSR_157
*1590 DFFSR_158
*1591 DFFSR_153
*1592 _904__bF_buf0
*1593 BUFX4_71
*1594 DFFSR_162
*1595 DFFSR_171
*1596 DFFSR_167
*1597 DFFSR_144
*1598 DFFSR_143
*1599 DFFSR_166
*1600 _513__bF_buf3
*1601 BUFX4_81
*1602 OAI21X1_295
*1603 OAI21X1_317
*1604 OAI21X1_270
*1605 OAI21X1_282
*1606 OAI21X1_321
*1607 OAI21X1_285
*1608 _513__bF_buf2
*1609 BUFX4_82
*1610 OAI21X1_273
*1611 OAI21X1_313
*1612 OAI21X1_307
*1613 OAI21X1_279
*1614 OAI21X1_319
*1615 OAI21X1_309
*1616 _513__bF_buf1
*1617 BUFX4_83
*1618 OAI21X1_299
*1619 OAI21X1_301
*1620 OAI21X1_323
*1621 OAI21X1_293
*1622 OAI21X1_291
*1623 OAI21X1_305
*1624 _513__bF_buf0
*1625 BUFX4_84
*1626 OAI21X1_311
*1627 OAI21X1_315
*1628 OAI21X1_303
*1629 OAI21X1_276
*1630 OAI21X1_297
*1631 OAI21X1_325
*1632 _342__bF_buf4
*1633 BUFX4_92
*1634 OAI21X1_215
*1635 OAI21X1_213
*1636 OAI21X1_197
*1637 OAI21X1_205
*1638 OAI21X1_203
*1639 OAI21X1_217
*1640 _342__bF_buf3
*1641 BUFX4_93
*1642 OAI21X1_211
*1643 OAI21X1_185
*1644 OAI21X1_225
*1645 OAI21X1_223
*1646 OAI21X1_237
*1647 OAI21X1_182
*1648 _342__bF_buf2
*1649 BUFX4_94
*1650 OAI21X1_233
*1651 OAI21X1_231
*1652 OAI21X1_219
*1653 OAI21X1_235
*1654 OAI21X1_194
*1655 OAI21X1_229
*1656 _342__bF_buf1
*1657 BUFX4_95
*1658 MUX2X1_59
*1659 OAI21X1_198
*1660 AOI21X1_3
*1661 AND2X2_3
*1662 NOR2X1_30
*1663 XNOR2X1_7
*1664 _342__bF_buf0
*1665 BUFX4_96
*1666 OAI21X1_209
*1667 OAI21X1_221
*1668 OAI21X1_191
*1669 OAI21X1_207
*1670 OAI21X1_188
*1671 OAI21X1_227
*1672 FIFO_INST[0]_fifo_inst_count[1]
*1673 DFFSR_18
*1674 NAND3X1_1
*1675 OR2X2_1
*1676 OAI21X1_22
*1677 NAND2X1_7
*1678 XOR2X1_2
*1679 MUX2X1_7
*1680 FIFO_INST[0]_fifo_inst_count[0]
*1681 DFFSR_17
*1682 OAI21X1_22
*1683 NAND2X1_7
*1684 NAND3X1_1
*1685 XOR2X1_2
*1686 OR2X2_1
*1687 XOR2X1_1
*1688 _22_
*1689 NOR2X1_3
*1690 MUX2X1_1
*1691 MUX2X1_4
*1692 MUX2X1_6
*1693 MUX2X1_5
*1694 MUX2X1_3
*1695 MUX2X1_2
*1696 _66_
*1697 NAND2X1_10
*1698 MUX2X1_12
*1699 MUX2X1_9
*1700 MUX2X1_13
*1701 MUX2X1_14
*1702 MUX2X1_10
*1703 MUX2X1_11
*1704 _79_
*1705 NOR2X1_7
*1706 MUX2X1_16
*1707 MUX2X1_15
*1708 MUX2X1_18
*1709 MUX2X1_19
*1710 MUX2X1_17
*1711 MUX2X1_20
*1712 _92_
*1713 NOR2X1_8
*1714 MUX2X1_24
*1715 MUX2X1_26
*1716 MUX2X1_25
*1717 MUX2X1_21
*1718 MUX2X1_23
*1719 MUX2X1_22
*1720 _108_
*1721 NAND2X1_11
*1722 OAI21X1_65
*1723 OAI21X1_69
*1724 OAI21X1_77
*1725 OAI21X1_81
*1726 OAI21X1_61
*1727 OAI21X1_73
*1728 _112_
*1729 NOR2X1_9
*1730 NAND2X1_17
*1731 NAND2X1_15
*1732 NAND2X1_23
*1733 NAND2X1_12
*1734 NAND2X1_19
*1735 NAND2X1_21
*1736 FIFO_INST[0]_fifo_inst_router_data_out[4]
*1737 DFFSR_11
*1738 OAI21X1_76
*1739 AOI22X1_4
*1740 AOI22X1_3
*1741 AOI22X1_6
*1742 INVX1_184
*1743 AOI22X1_9
*1744 FIFO_INST[0]_fifo_inst_router_data_out[5]
*1745 DFFSR_12
*1746 OAI21X1_80
*1747 INVX1_185
*1748 AOI22X1_18
*1749 AOI22X1_12
*1750 AOI22X1_11
*1751 AOI22X1_15
*1752 FIFO_INST[1]_fifo_inst_count[1]
*1753 DFFSR_37
*1754 OR2X2_3
*1755 NAND3X1_8
*1756 NAND2X1_35
*1757 OAI21X1_111
*1758 XOR2X1_4
*1759 MUX2X1_33
*1760 FIFO_INST[1]_fifo_inst_count[0]
*1761 DFFSR_36
*1762 OAI21X1_111
*1763 NAND2X1_35
*1764 XOR2X1_3
*1765 XOR2X1_4
*1766 NAND3X1_8
*1767 OR2X2_3
*1768 _185_
*1769 NOR2X1_13
*1770 MUX2X1_29
*1771 MUX2X1_27
*1772 MUX2X1_32
*1773 MUX2X1_31
*1774 MUX2X1_28
*1775 MUX2X1_30
*1776 _229_
*1777 NAND2X1_38
*1778 MUX2X1_37
*1779 MUX2X1_39
*1780 MUX2X1_36
*1781 MUX2X1_38