*SPEF "IEEE 1481.1999"
*DESIGN "noc_top"
*DATE "07:28:36 Friday March 28, 2025"
*VENDOR "unknown"
*PROGRAM "qrouter"
*VERSION "unknown"
*DESIGN_FLOW "qflow"
*DIVIDER /
*DELIMITER :
*BUS_DELIMITER <>
*T_UNIT 1 PS
*C_UNIT 1 FF
*R_UNIT 1 OHM
*L_UNIT 1 HENRY

*NAME_MAP
*1 FIFO_INST[0]_fifo_inst_pe_wr_en
*2 DFFSR_81
*3 NAND2X1_4
*4 NAND2X1_2
*5 OAI21X1_5
*6 OAI21X1_11
*7 NAND2X1_6
*8 NAND2X1_1
*9 OAI21X1_2
*10 OAI21X1_17
*11 NAND2X1_3
*12 OAI21X1_8
*13 NAND2X1_5
*14 NOR2X1_4
*15 OAI21X1_14
*16 OAI21X1_1
*17 OAI21X1_369
*18 FIFO_INST[1]_fifo_inst_pe_wr_en
*19 DFFSR_95
*20 NAND2X1_31
*21 NAND2X1_32
*22 OAI21X1_100
*23 OAI21X1_97
*24 OAI21X1_91
*25 NAND2X1_34
*26 NAND2X1_33
*27 OAI21X1_94
*28 OAI21X1_106
*29 OAI21X1_103
*30 NOR2X1_14
*31 OAI21X1_90
*32 NAND2X1_29
*33 NAND2X1_30
*34 OAI21X1_386
*35 FIFO_INST[2]_fifo_inst_pe_wr_en
*36 DFFSR_109
*37 NAND2X1_59
*38 NAND2X1_57
*39 NAND2X1_60
*40 OAI21X1_403
*41 OAI21X1_189
*42 OAI21X1_180
*43 NAND2X1_62
*44 OAI21X1_195
*45 OAI21X1_192
*46 NAND2X1_61
*47 OAI21X1_183
*48 NAND2X1_58
*49 NOR2X1_24
*50 OAI21X1_179
*51 OAI21X1_186
*52 FIFO_INST[3]_fifo_inst_pe_wr_en
*53 DFFSR_123
*54 NAND2X1_86
*55 NAND2X1_89
*56 OAI21X1_281
*57 NAND2X1_88
*58 OAI21X1_272
*59 OAI21X1_278
*60 OAI21X1_275
*61 NOR2X1_34
*62 OAI21X1_284
*63 OAI21X1_268
*64 NAND2X1_85
*65 OAI21X1_269
*66 NAND2X1_87
*67 NAND2X1_90
*68 OAI21X1_420
*69 _658_
*70 INVX8_5
*71 DFFSR_77
*72 DFFSR_90
*73 DFFSR_82
*74 DFFSR_80
*75 DFFSR_79
*76 DFFSR_78
*77 DFFSR_89
*78 DFFSR_86
*79 DFFSR_81
*80 DFFSR_84
*81 DFFSR_88
*82 DFFSR_85
*83 DFFSR_83
*84 DFFSR_87
*85 _686_
*86 INVX8_6
*87 DFFSR_93
*88 DFFSR_104
*89 DFFSR_96
*90 DFFSR_91
*91 DFFSR_92
*92 DFFSR_95
*93 DFFSR_99
*94 DFFSR_101
*95 DFFSR_102
*96 DFFSR_100
*97 DFFSR_98
*98 DFFSR_103
*99 DFFSR_97
*100 DFFSR_94
*101 _714_
*102 INVX8_7
*103 DFFSR_106
*104 DFFSR_118
*105 DFFSR_110
*106 DFFSR_115
*107 DFFSR_108
*108 DFFSR_107
*109 DFFSR_112
*110 DFFSR_116
*111 DFFSR_117
*112 DFFSR_114
*113 DFFSR_111
*114 DFFSR_113
*115 DFFSR_109
*116 DFFSR_105
*117 _742_
*118 INVX8_8
*119 DFFSR_124
*120 DFFSR_132
*121 DFFSR_119
*122 DFFSR_120
*123 DFFSR_129
*124 DFFSR_125
*125 DFFSR_123
*126 DFFSR_126
*127 DFFSR_127
*128 DFFSR_122
*129 DFFSR_121
*130 DFFSR_128
*131 DFFSR_130
*132 DFFSR_131
*133 _51_
*134 NOR2X1_5
*135 OAI21X1_60
*136 OAI21X1_64
*137 OAI21X1_72
*138 OAI21X1_87
*139 OAI21X1_20
*140 NOR2X1_6
*141 OR2X2_2
*142 OAI21X1_86
*143 OAI21X1_68
*144 OAI21X1_89
*145 OAI21X1_88
*146 OAI21X1_76
*147 OAI21X1_80
*148 _214_
*149 NOR2X1_15
*150 OAI21X1_149
*151 OAI21X1_161
*152 OAI21X1_165
*153 OAI21X1_157
*154 OAI21X1_178
*155 OAI21X1_177
*156 OAI21X1_175
*157 OAI21X1_169
*158 OR2X2_4
*159 NOR2X1_16
*160 OAI21X1_109
*161 OAI21X1_176
*162 OAI21X1_153
*163 _377_
*164 NOR2X1_25
*165 OAI21X1_250
*166 OAI21X1_266
*167 OAI21X1_246
*168 OAI21X1_265
*169 OAI21X1_242
*170 OAI21X1_267
*171 NOR2X1_26
*172 OR2X2_6
*173 OAI21X1_254
*174 OAI21X1_258
*175 OAI21X1_198
*176 OAI21X1_264
*177 OAI21X1_238
*178 _540_
*179 NOR2X1_35
*180 OAI21X1_343
*181 OAI21X1_339
*182 OAI21X1_331
*183 OAI21X1_347
*184 OAI21X1_335
*185 OAI21X1_327
*186 OAI21X1_353
*187 OAI21X1_354
*188 OAI21X1_356
*189 OAI21X1_355
*190 OR2X2_8
*191 OAI21X1_287
*192 NOR2X1_36
*193 arb_inst_start_idx[0]
*194 DFFSR_138
*195 XNOR2X1_13
*196 INVX2_6
*197 NAND2X1_139
*198 NAND3X1_36
*199 AND2X2_5
*200 NAND3X1_31
*201 NAND3X1_29
*202 NOR2X1_41
*203 NAND2X1_134
*204 AOI21X1_7
*205 NAND2X1_144
*206 NOR2X1_49
*207 OAI21X1_440
*208 _905_
*209 INVX4_3
*210 NAND2X1_167
*211 OAI21X1_446
*212 NOR2X1_55
*213 NAND2X1_176
*214 NAND2X1_160
*215 OAI22X1_9
*216 NAND2X1_179
*217 OAI22X1_6
*218 OAI22X1_8
*219 NAND2X1_173
*220 NAND2X1_170
*221 NAND2X1_182
*222 OAI22X1_7
*223 arb_inst_start_idx[1]
*224 DFFSR_139
*225 NAND2X1_134
*226 OAI21X1_425
*227 NAND2X1_136
*228 INVX4_1
*229 OAI21X1_426
*230 NAND2X1_138
*231 AND2X2_5
*232 NOR2X1_41
*233 NOR2X1_48
*234 NAND2X1_133
*235 OAI21X1_434
*236 NOR2X1_50
*237 _949_
*238 NOR2X1_55
*239 AOI21X1_16
*240 NOR2X1_60
*241 AOI21X1_17
*242 NOR2X1_61
*243 AOI21X1_15
*244 NOR2X1_59
*245 NOR2X1_57
*246 AOI21X1_13
*247 AOI21X1_14
*248 NOR2X1_58
*249 AOI21X1_12
*250 NOR2X1_56
*251 _842_
*252 NOR2X1_41
*253 AOI21X1_9
*254 NAND2X1_135
*255 AOI21X1_5
*256 AOI22X1_3
*257 NAND2X1_149
*258 AOI22X1_9
*259 AOI22X1_11
*260 AOI22X1_17
*261 AOI22X1_6
*262 AOI22X1_14
*263 NAND2X1_155
*264 FIFO_INST[0]_fifo_inst_rd_ptr[1]
*265 DFFSR_14
*266 OAI21X1_84
*267 INVX1_14
*268 NAND2X1_11
*269 NAND3X1_4
*270 NAND3X1_2
*271 NOR2X1_9
*272 NAND3X1_6
*273 NAND3X1_3
*274 NAND3X1_7
*275 NAND3X1_5
*276 rst
*277 INVX8_5
*278 INVX8_6
*279 INVX8_2
*280 INVX8_1
*281 INVX4_2
*282 INVX8_9
*283 INVX8_8
*284 INVX8_4
*285 INVX8_7
*286 INVX8_3
*287 FIFO_INST[1]_fifo_inst_rd_ptr[1]
*288 DFFSR_33
*289 OAI21X1_173
*290 NOR2X1_19
*291 INVX1_38
*292 NAND3X1_10
*293 NAND3X1_11
*294 NAND3X1_12
*295 NAND3X1_9
*296 NAND3X1_14
*297 NAND3X1_13
*298 NAND2X1_39
*299 FIFO_INST[2]_fifo_inst_rd_ptr[1]
*300 DFFSR_52
*301 NAND2X1_67
*302 INVX1_62
*303 NAND3X1_17
*304 OAI21X1_262
*305 NAND3X1_20
*306 NOR2X1_29
*307 NAND3X1_16
*308 NAND3X1_18
*309 NAND3X1_21
*310 NAND3X1_19
*311 FIFO_INST[3]_fifo_inst_rd_ptr[1]
*312 DFFSR_71
*313 OAI21X1_351
*314 NAND2X1_95
*315 NAND3X1_23
*316 NOR2X1_39
*317 INVX1_86
*318 NAND3X1_26
*319 NAND3X1_28
*320 NAND3X1_27
*321 NAND3X1_25
*322 NAND3X1_24
*323 _890_
*324 NOR2X1_49
*325 OAI21X1_431
*326 AOI22X1_1
*327 AOI22X1_4
*328 AOI22X1_3
*329 AOI22X1_10
*330 AOI22X1_6
*331 AOI22X1_15
*332 AOI22X1_17
*333 NAND2X1_154
*334 NAND2X1_156
*335 router_inst_processing
*336 DFFSR_171
*337 OAI21X1_453
*338 INVX4_3
*339 OAI21X1_455
*340 NAND2X1_164
*341 OAI21X1_463
*342 NAND3X1_53
*343 NAND3X1_52
*344 OAI21X1_461
*345 OAI21X1_459
*346 OAI21X1_457
*347 PE_INST[0]_pe_busy
*348 DFFSR_89
*349 OAI21X1_359
*350 OAI21X1_363
*351 OAI21X1_365
*352 OAI21X1_361
*353 OR2X2_9
*354 OAI21X1_367
*355 OAI21X1_357
*356 BUFX2_22
*357 NAND2X1_113
*358 PE_INST[1]_pe_busy
*359 DFFSR_103
*360 BUFX2_23
*361 OAI21X1_376
*362 NAND2X1_118
*363 OAI21X1_374
*364 OAI21X1_384
*365 OAI21X1_382
*366 OAI21X1_380
*367 OAI21X1_378
*368 OR2X2_10
*369 PE_INST[2]_pe_busy
*370 DFFSR_117
*371 BUFX2_24
*372 OAI21X1_393
*373 OAI21X1_399
*374 OAI21X1_401
*375 OR2X2_11
*376 NAND2X1_123
*377 OAI21X1_397
*378 OAI21X1_391
*379 OAI21X1_395
*380 PE_INST[3]_pe_busy
*381 DFFSR_131
*382 BUFX2_25
*383 NAND2X1_128
*384 OAI21X1_418
*385 OR2X2_12
*386 OAI21X1_412
*387 OAI21X1_410
*388 OAI21X1_416
*389 OAI21X1_408
*390 OAI21X1_414
*391 FIFO_INST[0]_fifo_inst_rd_ptr[0]
*392 DFFSR_13
*393 NOR2X1_9
*394 NAND3X1_2
*395 NAND3X1_3
*396 NAND3X1_5
*397 NAND3X1_7
*398 NAND3X1_6
*399 INVX2_1
*400 NAND2X1_13
*401 NAND3X1_4
*402 FIFO_INST[1]_fifo_inst_rd_ptr[0]
*403 DFFSR_32
*404 NOR2X1_19
*405 NAND2X1_41
*406 NAND3X1_10
*407 NAND3X1_11
*408 NAND3X1_12
*409 NAND3X1_14
*410 NAND3X1_13
*411 NAND3X1_9
*412 INVX2_2
*413 FIFO_INST[2]_fifo_inst_rd_ptr[0]
*414 DFFSR_51
*415 NAND3X1_17
*416 NAND2X1_69
*417 INVX2_3
*418 NAND3X1_16
*419 NOR2X1_29
*420 NAND3X1_20
*421 NAND3X1_21
*422 NAND3X1_18
*423 NAND3X1_19
*424 FIFO_INST[3]_fifo_inst_rd_ptr[0]
*425 DFFSR_70
*426 NAND3X1_23
*427 NOR2X1_39
*428 NAND3X1_26
*429 NAND3X1_28
*430 NAND2X1_97
*431 NAND3X1_27
*432 NAND3X1_25
*433 NAND3X1_24
*434 INVX2_4
*435 _840_
*436 INVX4_1
*437 NAND3X1_32
*438 NAND3X1_37
*439 NAND2X1_144
*440 AOI21X1_6
*441 NOR2X1_49
*442 NAND3X1_29
*443 NAND3X1_31
*444 NAND3X1_36
*445 NAND2X1_146
*446 arb_dest
*447 DFFSR_134
*448 NAND3X1_52
*449 NAND3X1_53
*450 NOR2X1_54
*451 NAND3X1_41
*452 NAND2X1_140
*453 NAND2X1_147
*454 INVX1_148
*455 BUFX2_26
*456 OR2X2_13
*457 _889_
*458 NOR2X1_48
*459 OAI21X1_431
*460 AOI22X1_15
*461 NAND2X1_153
*462 AOI22X1_18
*463 AOI22X1_7
*464 AOI22X1_9
*465 NAND2X1_150
*466 AOI22X1_2
*467 AOI22X1_12
*468 _775_
*469 AND2X2_5
*470 AOI22X1_1
*471 AOI22X1_2
*472 AOI22X1_10
*473 AOI22X1_4
*474 AOI22X1_7
*475 AOI22X1_12
*476 AOI22X1_11
*477 AOI22X1_18
*478 AOI22X1_14
*479 _915_
*480 INVX4_4
*481 OAI21X1_447
*482 NAND3X1_69
*483 NAND3X1_66
*484 NAND3X1_54
*485 NAND3X1_63
*486 NAND3X1_60
*487 NAND3X1_57
*488 OAI21X1_448
*489 NAND2X1_165
*490 _916_
*491 INVX4_5
*492 OAI21X1_451
*493 NAND3X1_67
*494 NAND3X1_70
*495 OAI21X1_447
*496 NAND3X1_61
*497 NAND3X1_64
*498 NAND2X1_163
*499 NAND3X1_55
*500 NAND3X1_58
*501 _62_
*502 NOR2X1_6
*503 OAI21X1_23
*504 OAI21X1_79
*505 OAI21X1_67
*506 OAI21X1_83
*507 OAI21X1_75
*508 OAI21X1_63
*509 OAI21X1_71
*510 XNOR2X1_3
*511 _225_
*512 NOR2X1_16
*513 OAI21X1_112
*514 XNOR2X1_6
*515 OAI21X1_172
*516 OAI21X1_168
*517 OAI21X1_152
*518 OAI21X1_156
*519 OAI21X1_164
*520 OAI21X1_160
*521 _388_
*522 NOR2X1_26
*523 OAI21X1_249
*524 XNOR2X1_9
*525 OAI21X1_245
*526 OAI21X1_241
*527 OAI21X1_261
*528 OAI21X1_257
*529 OAI21X1_253
*530 OAI21X1_201
*531 _551_
*532 NOR2X1_36
*533 OAI21X1_330
*534 OAI21X1_346
*535 OAI21X1_334
*536 OAI21X1_342
*537 OAI21X1_338
*538 OAI21X1_350
*539 OAI21X1_290
*540 XNOR2X1_12
*541 PE_INST[0]_pe_rd_en_d
*542 DFFSR_90
*543 NAND2X1_114
*544 OAI21X1_370
*545 NAND2X1_117
*546 NAND2X1_116
*547 OAI21X1_372
*548 OAI21X1_373
*549 NAND2X1_115
*550 OAI21X1_371
*551 PE_INST[1]_pe_rd_en_d
*552 DFFSR_104
*553 OAI21X1_389
*554 NAND2X1_122
*555 NAND2X1_120
*556 NAND2X1_121
*557 OAI21X1_387
*558 OAI21X1_388
*559 NAND2X1_119
*560 OAI21X1_390
*561 PE_INST[2]_pe_rd_en_d
*562 DFFSR_118
*563 NAND2X1_125
*564 OAI21X1_405
*565 OAI21X1_404
*566 NAND2X1_124
*567 NAND2X1_126
*568 OAI21X1_407
*569 OAI21X1_406
*570 NAND2X1_127
*571 PE_INST[3]_pe_rd_en_d
*572 DFFSR_132
*573 OAI21X1_421
*574 NAND2X1_129
*575 OAI21X1_422
*576 NAND2X1_130
*577 NAND2X1_131
*578 OAI21X1_424
*579 NAND2X1_132
*580 OAI21X1_423
*581 _906_
*582 NAND2X1_160
*583 OAI22X1_6
*584 OAI22X1_9
*585 OAI22X1_8
*586 OAI22X1_7
*587 OAI21X1_444
*588 OAI21X1_445
*589 OAI21X1_450
*590 INVX1_157
*591 clk_hier0_bF_buf5
*592 BUFX4_1
*593 CLKBUF1_38
*594 CLKBUF1_24
*595 CLKBUF1_3
*596 CLKBUF1_31
*597 CLKBUF1_40
*598 CLKBUF1_9
*599 CLKBUF1_11
*600 clk_hier0_bF_buf4
*601 BUFX4_2
*602 CLKBUF1_25
*603 CLKBUF1_14
*604 CLKBUF1_33
*605 CLKBUF1_37
*606 CLKBUF1_7
*607 CLKBUF1_32
*608 CLKBUF1_23
*609 clk_hier0_bF_buf3
*610 BUFX4_3
*611 CLKBUF1_16
*612 CLKBUF1_13
*613 CLKBUF1_20
*614 CLKBUF1_27
*615 CLKBUF1_15
*616 CLKBUF1_42
*617 CLKBUF1_36
*618 clk_hier0_bF_buf2
*619 BUFX4_4
*620 CLKBUF1_10
*621 CLKBUF1_8
*622 CLKBUF1_6
*623 CLKBUF1_1
*624 CLKBUF1_17
*625 CLKBUF1_2
*626 CLKBUF1_4
*627 clk_hier0_bF_buf1
*628 BUFX4_5
*629 CLKBUF1_22
*630 CLKBUF1_18
*631 CLKBUF1_39
*632 CLKBUF1_5
*633 CLKBUF1_26
*634 CLKBUF1_41
*635 CLKBUF1_21
*636 clk_hier0_bF_buf0
*637 BUFX4_6
*638 CLKBUF1_35
*639 CLKBUF1_29
*640 CLKBUF1_34
*641 CLKBUF1_30
*642 CLKBUF1_28
*643 CLKBUF1_12
*644 CLKBUF1_19
*645 FIFO_INST[3]_fifo_inst_full_bF_buf4
*646 BUFX4_19
*647 OAI21X1_273
*648 OAI21X1_276
*649 INVX1_74
*650 OAI21X1_295
*651 OAI21X1_293
*652 OAI21X1_282
*653 OAI21X1_299
*654 FIFO_INST[3]_fifo_inst_full_bF_buf3
*655 BUFX4_20
*656 OAI21X1_323
*657 OAI21X1_279
*658 OAI21X1_317
*659 OAI21X1_305
*660 OAI21X1_301
*661 OAI21X1_285
*662 OAI21X1_303
*663 FIFO_INST[3]_fifo_inst_full_bF_buf2
*664 BUFX4_21
*665 OAI21X1_315
*666 OAI21X1_414
*667 OAI21X1_408
*668 OAI21X1_416
*669 OAI21X1_410
*670 OAI21X1_412
*671 MUX2X1_105
*672 FIFO_INST[3]_fifo_inst_full_bF_buf1
*673 BUFX4_22
*674 OAI21X1_307
*675 OAI21X1_297
*676 OAI21X1_319
*677 OAI21X1_325
*678 OAI21X1_321
*679 OAI21X1_313
*680 OAI21X1_309
*681 FIFO_INST[3]_fifo_inst_full_bF_buf0
*682 BUFX4_23
*683 OR2X2_12
*684 OAI21X1_418
*685 OAI21X1_420
*686 NAND2X1_128
*687 OAI21X1_270
*688 OAI21X1_311
*689 OAI21X1_291
*690 clk_bF_buf41
*691 CLKBUF1_1
*692 DFFSR_80
*693 DFFSR_77
*694 DFFSR_9
*695 DFFSR_6
*696 DFFSR_79
*697 DFFSR_17
*698 DFFSR_5
*699 clk_bF_buf40
*700 CLKBUF1_2
*701 DFFSR_96
*702 DFFSR_104
*703 DFFSR_82
*704 DFFSR_7
*705 DFFSR_3
*706 DFFSR_8
*707 DFFSR_4
*708 clk_bF_buf39
*709 CLKBUF1_3
*710 DFFSR_47
*711 DFFSR_42
*712 DFFSR_43
*713 DFFSR_118
*714 DFFSR_44
*715 DFFSR_46
*716 DFFSR_51
*717 clk_bF_buf38
*718 CLKBUF1_4
*719 DFFPOSX1_10
*720 DFFSR_86
*721 DFFSR_81
*722 DFFSR_84
*723 DFFPOSX1_1
*724 DFFPOSX1_19
*725 DFFPOSX1_4
*726 clk_bF_buf37
*727 CLKBUF1_5
*728 DFFSR_139
*729 DFFSR_105
*730 DFFSR_53
*731 DFFSR_136
*732 DFFSR_138
*733 DFFSR_120
*734 DFFSR_64
*735 clk_bF_buf36
*736 CLKBUF1_6
*737 DFFSR_19
*738 DFFSR_2
*739 DFFSR_10
*740 DFFSR_148
*741 DFFPOSX1_5
*742 DFFSR_18
*743 DFFSR_14
*744 clk_bF_buf35
*745 CLKBUF1_7
*746 DFFPOSX1_80
*747 DFFPOSX1_90
*748 DFFPOSX1_96
*749 DFFSR_73
*750 DFFPOSX1_91
*751 DFFPOSX1_82
*752 DFFPOSX1_76
*753 clk_bF_buf34
*754 CLKBUF1_8
*755 DFFSR_13
*756 DFFSR_1
*757 DFFPOSX1_2
*758 DFFSR_15
*759 DFFSR_78
*760 DFFSR_16
*761 DFFPOSX1_21
*762 clk_bF_buf33
*763 CLKBUF1_9
*764 DFFSR_112
*765 DFFSR_116
*766 DFFPOSX1_50
*767 DFFPOSX1_55
*768 DFFPOSX1_52
*769 DFFPOSX1_62
*770 DFFPOSX1_61
*771 clk_bF_buf32
*772 CLKBUF1_10
*773 DFFSR_89
*774 DFFPOSX1_15
*775 DFFPOSX1_13
*776 DFFPOSX1_7
*777 DFFPOSX1_16
*778 DFFPOSX1_6
*779 DFFPOSX1_8
*780 clk_bF_buf31
*781 CLKBUF1_11
*782 DFFSR_83
*783 DFFSR_160
*784 DFFPOSX1_18
*785 DFFSR_147
*786 DFFPOSX1_3
*787 DFFSR_87
*788 DFFPOSX1_9
*789 clk_bF_buf30
*790 CLKBUF1_12
*791 DFFSR_173
*792 DFFSR_171
*793 DFFSR_141
*794 DFFSR_163
*795 DFFSR_145
*796 DFFSR_143
*797 DFFSR_151
*798 clk_bF_buf29
*799 CLKBUF1_13
*800 DFFSR_97
*801 DFFSR_98
*802 DFFSR_100
*803 DFFSR_101
*804 DFFSR_102
*805 DFFSR_99
*806 DFFSR_95
*807 clk_bF_buf28
*808 CLKBUF1_14
*809 DFFPOSX1_89
*810 DFFPOSX1_95
*811 DFFPOSX1_83
*812 DFFPOSX1_73
*813 DFFPOSX1_85
*814 DFFPOSX1_79
*815 DFFPOSX1_77
*816 clk_bF_buf27
*817 CLKBUF1_15
*818 DFFSR_34
*819 DFFPOSX1_84
*820 DFFPOSX1_88
*821 DFFPOSX1_75
*822 DFFSR_36
*823 DFFSR_37
*824 DFFPOSX1_78
*825 clk_bF_buf26
*826 CLKBUF1_16
*827 DFFSR_22
*828 DFFSR_24
*829 DFFSR_29
*830 DFFSR_27
*831 DFFSR_154
*832 DFFSR_157
*833 DFFSR_144
*834 clk_bF_buf25
*835 CLKBUF1_17
*836 DFFSR_94
*837 DFFSR_91
*838 DFFSR_92
*839 DFFSR_93
*840 DFFSR_25
*841 DFFSR_23
*842 DFFSR_90
*843 clk_bF_buf24
*844 CLKBUF1_18
*845 DFFSR_66
*846 DFFSR_135
*847 DFFSR_68
*848 DFFSR_125
*849 DFFSR_67
*850 DFFSR_69
*851 DFFSR_65
*852 clk_bF_buf23
*853 CLKBUF1_19
*854 DFFSR_176
*855 DFFSR_133
*856 DFFSR_45
*857 DFFSR_134
*858 DFFSR_106
*859 DFFSR_175
*860 DFFSR_48
*861 clk_bF_buf22
*862 CLKBUF1_20
*863 DFFPOSX1_40
*864 DFFPOSX1_45
*865 DFFPOSX1_38
*866 DFFPOSX1_43
*867 DFFPOSX1_28
*868 DFFSR_103
*869 DFFPOSX1_26
*870 clk_bF_buf21
*871 CLKBUF1_21
*872 DFFPOSX1_70
*873 DFFPOSX1_60
*874 DFFSR_111
*875 DFFSR_117
*876 DFFSR_114
*877 DFFPOSX1_58
*878 DFFPOSX1_56
*879 clk_bF_buf20
*880 CLKBUF1_22
*881 DFFSR_137
*882 DFFSR_50
*883 DFFSR_41
*884 DFFSR_49
*885 DFFSR_55
*886 DFFSR_52
*887 DFFPOSX1_57
*888 FIFO_INST[1]_fifo_inst_full_bF_buf4
*889 BUFX4_31
*890 MUX2X1_105
*891 OAI21X1_384
*892 OAI21X1_382
*893 OAI21X1_380
*894 OAI21X1_378
*895 OR2X2_10
*896 INVX1_26
*897 FIFO_INST[1]_fifo_inst_full_bF_buf3
*898 BUFX4_32
*899 OAI21X1_115
*900 OAI21X1_92
*901 OAI21X1_98
*902 OAI21X1_119
*903 OAI21X1_95
*904 OAI21X1_139
*905 OAI21X1_117
*906 FIFO_INST[1]_fifo_inst_full_bF_buf2
*907 BUFX4_33
*908 OAI21X1_147
*909 OAI21X1_121
*910 OAI21X1_125
*911 OAI21X1_145
*912 OAI21X1_107
*913 OAI21X1_137
*914 OAI21X1_135
*915 FIFO_INST[1]_fifo_inst_full_bF_buf1
*916 BUFX4_34
*917 OAI21X1_129
*918 OAI21X1_101
*919 OAI21X1_131
*920 OAI21X1_123
*921 OAI21X1_141
*922 OAI21X1_133
*923 OAI21X1_104
*924 FIFO_INST[1]_fifo_inst_full_bF_buf0
*925 BUFX4_35
*926 OAI21X1_374
*927 OAI21X1_113
*928 OAI21X1_143
*929 OAI21X1_386
*930 OAI21X1_376
*931 NAND2X1_118
*932 OAI21X1_127
*933 FIFO_INST[2]_fifo_inst_full_bF_buf4
*934 BUFX4_61
*935 OAI21X1_184
*936 OAI21X1_230
*937 INVX1_50
*938 OAI21X1_401
*939 OAI21X1_399
*940 OAI21X1_393
*941 OAI21X1_193
*942 FIFO_INST[2]_fifo_inst_full_bF_buf3
*943 BUFX4_62
*944 OAI21X1_212
*945 OAI21X1_181
*946 OAI21X1_196
*947 OAI21X1_391
*948 OAI21X1_190
*949 OAI21X1_208
*950 OAI21X1_395
*951 FIFO_INST[2]_fifo_inst_full_bF_buf2
*952 BUFX4_63
*953 OAI21X1_202
*954 OAI21X1_204
*955 OAI21X1_232
*956 OAI21X1_214
*957 OAI21X1_228
*958 OAI21X1_226
*959 OR2X2_11
*960 FIFO_INST[2]_fifo_inst_full_bF_buf1
*961 BUFX4_64
*962 OAI21X1_222
*963 OAI21X1_187
*964 OAI21X1_218
*965 OAI21X1_206
*966 MUX2X1_106
*967 OAI21X1_210
*968 OAI21X1_234
*969 FIFO_INST[2]_fifo_inst_full_bF_buf0
*970 BUFX4_65
*971 OAI21X1_236
*972 OAI21X1_216
*973 OAI21X1_220
*974 OAI21X1_403
*975 NAND2X1_123
*976 OAI21X1_224
*977 OAI21X1_397
*978 _904__bF_buf5
*979 BUFX4_66
*980 DFFSR_152
*981 DFFSR_150
*982 DFFSR_151
*983 DFFSR_162
*984 DFFSR_171
*985 DFFSR_148
*986 DFFSR_173
*987 _904__bF_buf4
*988 BUFX4_67
*989 DFFSR_140
*990 DFFSR_178
*991 DFFSR_177
*992 DFFSR_156
*993 DFFSR_157
*994 DFFSR_154
*995 DFFSR_144
*996 _904__bF_buf3
*997 BUFX4_68
*998 DFFSR_163
*999 DFFSR_164
*1000 DFFSR_149
*1001 DFFSR_161
*1002 DFFSR_147
*1003 DFFSR_160
*1004 DFFSR_159
*1005 FIFO_INST[0]_fifo_inst_full_bF_buf4
*1006 BUFX4_72
*1007 OAI21X1_367
*1008 OAI21X1_34
*1009 OAI21X1_6
*1010 OAI21X1_357
*1011 OR2X2_9
*1012 OAI21X1_361
*1013 OAI21X1_365
*1014 FIFO_INST[0]_fifo_inst_full_bF_buf3
*1015 BUFX4_73
*1016 OAI21X1_30
*1017 OAI21X1_46
*1018 OAI21X1_18
*1019 OAI21X1_52
*1020 OAI21X1_26
*1021 OAI21X1_40
*1022 OAI21X1_58
*1023 FIFO_INST[0]_fifo_inst_full_bF_buf2
*1024 BUFX4_74
*1025 OAI21X1_12
*1026 OAI21X1_3
*1027 OAI21X1_48
*1028 OAI21X1_42
*1029 OAI21X1_363
*1030 OAI21X1_359
*1031 OAI21X1_54
*1032 FIFO_INST[0]_fifo_inst_full_bF_buf1
*1033 BUFX4_75
*1034 OAI21X1_32
*1035 INVX1_2
*1036 OAI21X1_15
*1037 OAI21X1_44
*1038 OAI21X1_56
*1039 MUX2X1_106
*1040 OAI21X1_38
*1041 FIFO_INST[0]_fifo_inst_full_bF_buf0
*1042 BUFX4_76
*1043 NAND2X1_113
*1044 OAI21X1_36
*1045 OAI21X1_28
*1046 OAI21X1_369
*1047 OAI21X1_24
*1048 OAI21X1_9
*1049 OAI21X1_50
*1050 _115_
*1051 NAND2X1_13
*1052 OAI21X1_66
*1053 OAI21X1_85
*1054 OAI21X1_78
*1055 OAI21X1_82
*1056 OAI21X1_70
*1057 OAI21X1_62
*1058 OAI21X1_74
*1059 _278_
*1060 NAND2X1_41
*1061 OAI21X1_163
*1062 OAI21X1_151
*1063 OAI21X1_155
*1064 OAI21X1_174
*1065 OAI21X1_159
*1066 OAI21X1_167
*1067 OAI21X1_171
*1068 _441_
*1069 NAND2X1_69
*1070 OAI21X1_248
*1071 OAI21X1_263
*1072 OAI21X1_256
*1073 OAI21X1_260
*1074 OAI21X1_244
*1075 OAI21X1_252
*1076 OAI21X1_240
*1077 _604_
*1078 NAND2X1_97
*1079 OAI21X1_329
*1080 OAI21X1_345
*1081 OAI21X1_337
*1082 OAI21X1_349
*1083 OAI21X1_341
*1084 OAI21X1_333
*1085 OAI21X1_352
*1086 _659_
*1087 OR2X2_9
*1088 OAI21X1_366
*1089 OAI21X1_362
*1090 OAI21X1_358
*1091 OAI21X1_368
*1092 INVX1_97
*1093 OAI21X1_360
*1094 OAI21X1_364
*1095 _687_
*1096 OR2X2_10
*1097 OAI21X1_379
*1098 OAI21X1_381
*1099 OAI21X1_383
*1100 OAI21X1_385
*1101 OAI21X1_375
*1102 OAI21X1_377
*1103 INVX1_109
*1104 _715_
*1105 OR2X2_11
*1106 OAI21X1_402
*1107 OAI21X1_400
*1108 OAI21X1_394
*1109 OAI21X1_398
*1110 OAI21X1_392
*1111 OAI21X1_396
*1112 INVX1_121
*1113 _743_
*1114 OR2X2_12
*1115 OAI21X1_413
*1116 OAI21X1_419
*1117 OAI21X1_415
*1118 OAI21X1_417
*1119 OAI21X1_411
*1120 INVX1_133
*1121 OAI21X1_409
*1122 arb_inst_toggle
*1123 DFFSR_137
*1124 OAI21X1_438
*1125 INVX1_145
*1126 OAI21X1_436
*1127 OAI21X1_443
*1128 NAND2X1_143
*1129 OAI21X1_442
*1130 OAI21X1_432
*1131 _835_
*1132 INVX2_6
*1133 NAND3X1_32
*1134 NAND3X1_37
*1135 NOR2X1_48
*1136 NAND2X1_158
*1137 NAND2X1_159
*1138 NAND2X1_133
*1139 NAND2X1_137
*1140 _770_
*1141 INVX4_2
*1142 DFFSR_134
*1143 DFFSR_137
*1144 DFFSR_139
*1145 DFFSR_136
*1146 DFFSR_138
*1147 DFFSR_135
*1148 DFFSR_133
*1149 _908_
*1150 NAND3X1_52
*1151 MUX2X1_110
*1152 MUX2X1_108
*1153 MUX2X1_111
*1154 OAI21X1_444
*1155 MUX2X1_109
*1156 MUX2X1_112
*1157 MUX2X1_107
*1158 _911_
*1159 NAND3X1_53
*1160 MUX2X1_122
*1161 MUX2X1_121
*1162 MUX2X1_119
*1163 MUX2X1_124
*1164 OAI21X1_445
*1165 MUX2X1_120
*1166 MUX2X1_123
*1167 _920_
*1168 OR2X2_14
*1169 OAI22X1_8
*1170 OAI21X1_460
*1171 OAI21X1_462
*1172 OAI21X1_456
*1173 OAI21X1_454
*1174 OAI21X1_452
*1175 OAI21X1_458
*1176 _924_
*1177 NAND2X1_164
*1178 OAI21X1_450
*1179 MUX2X1_117
*1180 MUX2X1_116
*1181 MUX2X1_118
*1182 MUX2X1_115
*1183 MUX2X1_113
*1184 MUX2X1_114
*1185 clk
*1186 BUFX4_4
*1187 BUFX4_5
*1188 BUFX4_1
*1189 BUFX4_6
*1190 BUFX4_3
*1191 BUFX4_2
*1192 _16__bF_buf4
*1193 BUFX4_10
*1194 OAI21X1_27
*1195 OAI21X1_47
*1196 OAI21X1_19
*1197 OAI21X1_35
*1198 OAI21X1_7
*1199 OAI21X1_53
*1200 _16__bF_buf3
*1201 BUFX4_11
*1202 XNOR2X1_1
*1203 OAI21X1_10
*1204 NOR2X1_10
*1205 OAI21X1_25
*1206 OAI21X1_29
*1207 OAI21X1_37
*1208 _16__bF_buf2
*1209 BUFX4_12
*1210 OAI21X1_59
*1211 OAI21X1_39
*1212 OAI21X1_51
*1213 AND2X2_1
*1214 AOI21X1_1
*1215 OAI21X1_20
*1216 _16__bF_buf1
*1217 BUFX4_13
*1218 OAI21X1_41
*1219 OAI21X1_33
*1220 OAI21X1_45
*1221 OAI21X1_16
*1222 OAI21X1_57
*1223 MUX2X1_7
*1224 _16__bF_buf0
*1225 BUFX4_14
*1226 OAI21X1_31
*1227 OAI21X1_43
*1228 OAI21X1_55
*1229 OAI21X1_4
*1230 OAI21X1_49
*1231 OAI21X1_13
*1232 _350__bF_buf3
*1233 BUFX4_15
*1234 OAI21X1_184
*1235 OAI21X1_230
*1236 OAI21X1_193
*1237 OAI21X1_181
*1238 OAI21X1_196
*1239 OAI21X1_212
*1240 _350__bF_buf2
*1241 BUFX4_16
*1242 OAI21X1_236
*1243 OAI21X1_224
*1244 OAI21X1_220
*1245 OAI21X1_216
*1246 OAI21X1_208
*1247 OAI21X1_190
*1248 _350__bF_buf1
*1249 BUFX4_17
*1250 OAI21X1_202
*1251 OAI21X1_204
*1252 OAI21X1_232
*1253 OAI21X1_226
*1254 OAI21X1_214
*1255 OAI21X1_228
*1256 _350__bF_buf0
*1257 BUFX4_18
*1258 OAI21X1_234
*1259 OAI21X1_187
*1260 OAI21X1_222
*1261 OAI21X1_210
*1262 OAI21X1_218
*1263 OAI21X1_206
*1264 clk_bF_buf19
*1265 CLKBUF1_23
*1266 DFFSR_123
*1267 DFFSR_60
*1268 DFFSR_119
*1269 DFFSR_129
*1270 DFFSR_124
*1271 DFFSR_132
*1272 clk_bF_buf18
*1273 CLKBUF1_24
*1274 DFFSR_115
*1275 DFFSR_108
*1276 DFFSR_107
*1277 DFFPOSX1_51
*1278 DFFPOSX1_68
*1279 DFFPOSX1_49
*1280 clk_bF_buf17
*1281 CLKBUF1_25
*1282 DFFPOSX1_92
*1283 DFFPOSX1_93
*1284 DFFPOSX1_74
*1285 DFFPOSX1_94
*1286 DFFPOSX1_81
*1287 DFFPOSX1_86
*1288 clk_bF_buf16
*1289 CLKBUF1_26
*1290 DFFSR_109
*1291 DFFSR_113
*1292 DFFPOSX1_59
*1293 DFFPOSX1_69
*1294 DFFPOSX1_65
*1295 DFFPOSX1_53
*1296 clk_bF_buf15
*1297 CLKBUF1_27
*1298 DFFPOSX1_30
*1299 DFFPOSX1_33
*1300 DFFPOSX1_32
*1301 DFFPOSX1_48
*1302 DFFPOSX1_25
*1303 DFFPOSX1_37
*1304 clk_bF_buf14
*1305 CLKBUF1_28
*1306 DFFSR_20
*1307 DFFSR_38
*1308 DFFSR_153
*1309 DFFSR_32
*1310 DFFPOSX1_29
*1311 DFFSR_33
*1312 clk_bF_buf13
*1313 CLKBUF1_29
*1314 DFFSR_21
*1315 DFFSR_158
*1316 DFFSR_155
*1317 DFFSR_167
*1318 DFFSR_170
*1319 DFFSR_165
*1320 clk_bF_buf12
*1321 CLKBUF1_30
*1322 DFFSR_169
*1323 DFFSR_146
*1324 DFFPOSX1_87
*1325 DFFSR_166
*1326 DFFSR_168
*1327 DFFSR_142
*1328 clk_bF_buf11
*1329 CLKBUF1_31
*1330 DFFPOSX1_24
*1331 DFFSR_149
*1332 DFFPOSX1_11
*1333 DFFPOSX1_23
*1334 DFFPOSX1_17
*1335 DFFSR_159
*1336 clk_bF_buf10
*1337 CLKBUF1_32
*1338 DFFSR_72
*1339 DFFSR_71
*1340 DFFSR_131
*1341 DFFSR_70
*1342 DFFSR_130
*1343 DFFSR_59
*1344 clk_bF_buf9
*1345 CLKBUF1_33
*1346 DFFSR_128
*1347 DFFSR_126
*1348 DFFSR_127
*1349 DFFSR_63
*1350 DFFSR_122
*1351 DFFSR_61
*1352 clk_bF_buf8
*1353 CLKBUF1_34
*1354 DFFSR_28
*1355 DFFSR_31
*1356 DFFSR_30
*1357 DFFSR_156
*1358 DFFSR_26
*1359 DFFSR_174
*1360 clk_bF_buf7
*1361 CLKBUF1_35
*1362 DFFSR_177
*1363 DFFSR_140
*1364 DFFSR_12
*1365 DFFSR_11
*1366 DFFSR_178
*1367 DFFSR_172
*1368 clk_bF_buf6
*1369 CLKBUF1_36
*1370 DFFPOSX1_39
*1371 DFFPOSX1_42
*1372 DFFPOSX1_46
*1373 DFFPOSX1_27
*1374 DFFPOSX1_34
*1375 DFFPOSX1_44
*1376 clk_bF_buf5
*1377 CLKBUF1_37
*1378 DFFSR_75
*1379 DFFSR_74
*1380 DFFSR_76
*1381 DFFSR_121
*1382 DFFSR_58
*1383 DFFSR_62
*1384 clk_bF_buf4
*1385 CLKBUF1_38
*1386 DFFSR_164
*1387 DFFSR_162
*1388 DFFSR_150
*1389 DFFSR_152
*1390 DFFSR_161
*1391 DFFSR_110
*1392 clk_bF_buf3
*1393 CLKBUF1_39
*1394 DFFSR_40
*1395 DFFSR_56
*1396 DFFSR_57
*1397 DFFSR_54
*1398 DFFSR_39
*1399 DFFPOSX1_63
*1400 clk_bF_buf2
*1401 CLKBUF1_40
*1402 DFFSR_85
*1403 DFFSR_88
*1404 DFFPOSX1_12
*1405 DFFPOSX1_20
*1406 DFFPOSX1_22
*1407 DFFPOSX1_14
*1408 clk_bF_buf1
*1409 CLKBUF1_41
*1410 DFFPOSX1_66
*1411 DFFPOSX1_67
*1412 DFFPOSX1_72
*1413 DFFPOSX1_64
*1414 DFFPOSX1_71
*1415 DFFPOSX1_54
*1416 clk_bF_buf0
*1417 CLKBUF1_42
*1418 DFFPOSX1_41
*1419 DFFSR_35
*1420 DFFPOSX1_47
*1421 DFFPOSX1_35
*1422 DFFPOSX1_36
*1423 DFFPOSX1_31
*1424 _179__bF_buf4
*1425 BUFX4_36
*1426 OAI21X1_148
*1427 OAI21X1_138
*1428 OAI21X1_114
*1429 OAI21X1_144
*1430 OAI21X1_128
*1431 OAI21X1_108
*1432 _179__bF_buf3
*1433 BUFX4_37
*1434 OAI21X1_130
*1435 OAI21X1_132
*1436 OAI21X1_102
*1437 OAI21X1_116
*1438 OAI21X1_99
*1439 OAI21X1_93
*1440 _179__bF_buf2
*1441 BUFX4_38
*1442 OAI21X1_134
*1443 OAI21X1_105
*1444 NOR2X1_20
*1445 XNOR2X1_4
*1446 OAI21X1_122
*1447 OAI21X1_136
*1448 _179__bF_buf1
*1449 BUFX4_39
*1450 OAI21X1_146
*1451 AOI21X1_2
*1452 AND2X2_2
*1453 OAI21X1_109
*1454 OAI21X1_126
*1455 MUX2X1_33
*1456 _179__bF_buf0
*1457 BUFX4_40
*1458 OAI21X1_96
*1459 OAI21X1_124
*1460 OAI21X1_118
*1461 OAI21X1_142
*1462 OAI21X1_140
*1463 OAI21X1_120
*1464 _24__bF_buf3
*1465 BUFX4_41
*1466 OAI21X1_40
*1467 OAI21X1_32
*1468 OAI21X1_38
*1469 OAI21X1_56
*1470 OAI21X1_44
*1471 OAI21X1_15
*1472 _24__bF_buf2
*1473 BUFX4_42
*1474 OAI21X1_30
*1475 OAI21X1_54
*1476 OAI21X1_12
*1477 OAI21X1_3
*1478 OAI21X1_48
*1479 OAI21X1_42
*1480 _24__bF_buf1
*1481 BUFX4_43
*1482 OAI21X1_58
*1483 OAI21X1_50
*1484 OAI21X1_28
*1485 OAI21X1_36
*1486 OAI21X1_24
*1487 OAI21X1_9
*1488 _24__bF_buf0
*1489 BUFX4_44
*1490 OAI21X1_6
*1491 OAI21X1_46
*1492 OAI21X1_18
*1493 OAI21X1_52
*1494 OAI21X1_26
*1495 OAI21X1_34
*1496 _505__bF_buf4
*1497 BUFX4_45
*1498 OAI21X1_312
*1499 OAI21X1_292
*1500 OAI21X1_283
*1501 OAI21X1_316
*1502 OAI21X1_324
*1503 OAI21X1_304
*1504 _505__bF_buf3
*1505 BUFX4_46
*1506 OAI21X1_277
*1507 OAI21X1_274
*1508 OAI21X1_308
*1509 OAI21X1_294
*1510 OAI21X1_296
*1511 OAI21X1_300
*1512 _505__bF_buf2
*1513 BUFX4_47
*1514 OAI21X1_298
*1515 OAI21X1_320
*1516 OAI21X1_314
*1517 OAI21X1_322
*1518 OAI21X1_326
*1519 OAI21X1_310
*1520 _505__bF_buf1
*1521 BUFX4_48
*1522 OAI21X1_271
*1523 XNOR2X1_10
*1524 MUX2X1_85
*1525 AOI21X1_4
*1526 AND2X2_4
*1527 OAI21X1_287
*1528 _505__bF_buf0
*1529 BUFX4_49
*1530 OAI21X1_280
*1531 OAI21X1_318
*1532 OAI21X1_286
*1533 OAI21X1_302
*1534 NOR2X1_40
*1535 OAI21X1_306
*1536 _187__bF_buf3
*1537 BUFX4_54
*1538 OAI21X1_137
*1539 OAI21X1_107
*1540 OAI21X1_125
*1541 OAI21X1_135
*1542 OAI21X1_121
*1543 OAI21X1_145
*1544 _187__bF_buf2
*1545 BUFX4_55
*1546 OAI21X1_101
*1547 OAI21X1_123
*1548 OAI21X1_95
*1549 OAI21X1_117
*1550 OAI21X1_139
*1551 OAI21X1_119
*1552 _187__bF_buf1
*1553 BUFX4_56
*1554 OAI21X1_127
*1555 OAI21X1_143
*1556 OAI21X1_113
*1557 OAI21X1_115
*1558 OAI21X1_98
*1559 OAI21X1_92
*1560 _187__bF_buf0
*1561 BUFX4_57
*1562 OAI21X1_147
*1563 OAI21X1_129
*1564 OAI21X1_131
*1565 OAI21X1_141
*1566 OAI21X1_133
*1567 OAI21X1_104
*1568 _904_
*1569 INVX8_9
*1570 BUFX4_70
*1571 BUFX4_71
*1572 BUFX4_67
*1573 BUFX4_69
*1574 BUFX4_68
*1575 BUFX4_66
*1576 _904__bF_buf2
*1577 BUFX4_69
*1578 DFFSR_145
*1579 DFFSR_175
*1580 DFFSR_172
*1581 DFFSR_143
*1582 DFFSR_176
*1583 DFFSR_141
*1584 _904__bF_buf1
*1585 BUFX4_70
*1586 DFFSR_168
*1587 DFFSR_142
*1588 DFFSR_166
*1589 DFFSR_146
*1590 DFFSR_167
*1591 DFFSR_170
*1592 _904__bF_buf0
*1593 BUFX4_71
*1594 DFFSR_155
*1595 DFFSR_158
*1596 DFFSR_169
*1597 DFFSR_153
*1598 DFFSR_165
*1599 DFFSR_174
*1600 _513__bF_buf3
*1601 BUFX4_81
*1602 OAI21X1_276
*1603 OAI21X1_273
*1604 OAI21X1_279
*1605 OAI21X1_319
*1606 OAI21X1_297
*1607 OAI21X1_307
*1608 _513__bF_buf2
*1609 BUFX4_82
*1610 OAI21X1_303
*1611 OAI21X1_270
*1612 OAI21X1_285
*1613 OAI21X1_301
*1614 OAI21X1_323
*1615 OAI21X1_311
*1616 _513__bF_buf1
*1617 BUFX4_83
*1618 OAI21X1_282
*1619 OAI21X1_299
*1620 OAI21X1_293
*1621 OAI21X1_295
*1622 OAI21X1_291
*1623 OAI21X1_315
*1624 _513__bF_buf0
*1625 BUFX4_84
*1626 OAI21X1_317
*1627 OAI21X1_309
*1628 OAI21X1_305
*1629 OAI21X1_325
*1630 OAI21X1_321
*1631 OAI21X1_313
*1632 _342__bF_buf4
*1633 BUFX4_92
*1634 OAI21X1_194
*1635 OAI21X1_182
*1636 OAI21X1_209
*1637 OAI21X1_191
*1638 OAI21X1_197
*1639 OAI21X1_213
*1640 _342__bF_buf3
*1641 BUFX4_93
*1642 OAI21X1_211
*1643 OAI21X1_223
*1644 OAI21X1_235
*1645 NOR2X1_30
*1646 XNOR2X1_7
*1647 AOI21X1_3
*1648 _342__bF_buf2
*1649 BUFX4_94
*1650 OAI21X1_231
*1651 OAI21X1_185
*1652 OAI21X1_227
*1653 OAI21X1_215
*1654 OAI21X1_229
*1655 OAI21X1_233
*1656 _342__bF_buf1
*1657 BUFX4_95
*1658 OAI21X1_219
*1659 OAI21X1_207
*1660 MUX2X1_59
*1661 AND2X2_3
*1662 OAI21X1_198
*1663 OAI21X1_188
*1664 _342__bF_buf0
*1665 BUFX4_96
*1666 OAI21X1_237
*1667 OAI21X1_205
*1668 OAI21X1_203
*1669 OAI21X1_217
*1670 OAI21X1_221
*1671 OAI21X1_225
*1672 FIFO_INST[0]_fifo_inst_count[1]
*1673 DFFSR_18
*1674 MUX2X1_7
*1675 XOR2X1_2
*1676 NAND3X1_1
*1677 NAND2X1_7
*1678 OAI21X1_22
*1679 OR2X2_1
*1680 FIFO_INST[0]_fifo_inst_count[0]
*1681 DFFSR_17
*1682 NAND3X1_1
*1683 XOR2X1_2
*1684 XOR2X1_1
*1685 OAI21X1_22
*1686 NAND2X1_7
*1687 OR2X2_1
*1688 _22_
*1689 NOR2X1_3
*1690 MUX2X1_3
*1691 MUX2X1_5
*1692 MUX2X1_6
*1693 MUX2X1_2
*1694 MUX2X1_4
*1695 MUX2X1_1
*1696 _66_
*1697 NAND2X1_10
*1698 MUX2X1_11
*1699 MUX2X1_9
*1700 MUX2X1_12
*1701 MUX2X1_10
*1702 MUX2X1_14
*1703 MUX2X1_13
*1704 _79_
*1705 NOR2X1_7
*1706 MUX2X1_15
*1707 MUX2X1_18
*1708 MUX2X1_20
*1709 MUX2X1_16
*1710 MUX2X1_19
*1711 MUX2X1_17
*1712 _92_
*1713 NOR2X1_8
*1714 MUX2X1_22
*1715 MUX2X1_23
*1716 MUX2X1_26
*1717 MUX2X1_24
*1718 MUX2X1_21
*1719 MUX2X1_25
*1720 _108_
*1721 NAND2X1_11
*1722 OAI21X1_69
*1723 OAI21X1_61
*1724 OAI21X1_77
*1725 OAI21X1_65
*1726 OAI21X1_73
*1727 OAI21X1_81
*1728 _112_
*1729 NOR2X1_9
*1730 NAND2X1_15
*1731 NAND2X1_21
*1732 NAND2X1_23
*1733 NAND2X1_17
*1734 NAND2X1_19
*1735 NAND2X1_12
*1736 FIFO_INST[0]_fifo_inst_router_data_out[4]
*1737 DFFSR_11
*1738 OAI21X1_76
*1739 INVX1_184
*1740 AOI22X1_9
*1741 AOI22X1_4
*1742 AOI22X1_3
*1743 AOI22X1_6
*1744 FIFO_INST[0]_fifo_inst_router_data_out[5]
*1745 DFFSR_12
*1746 OAI21X1_80
*1747 INVX1_185
*1748 AOI22X1_11
*1749 AOI22X1_12
*1750 AOI22X1_15
*1751 AOI22X1_18
*1752 FIFO_INST[1]_fifo_inst_count[1]
*1753 DFFSR_37
*1754 MUX2X1_33
*1755 NAND3X1_8
*1756 NAND2X1_35
*1757 OAI21X1_111
*1758 OR2X2_3
*1759 XOR2X1_4
*1760 FIFO_INST[1]_fifo_inst_count[0]
*1761 DFFSR_36
*1762 OAI21X1_111
*1763 NAND2X1_35
*1764 NAND3X1_8
*1765 XOR2X1_4
*1766 XOR2X1_3
*1767 OR2X2_3
*1768 _185_
*1769 NOR2X1_13
*1770 MUX2X1_31
*1771 MUX2X1_32
*1772 MUX2X1_30
*1773 MUX2X1_29
*1774 MUX2X1_28
*1775 MUX2X1_27
*1776 _229_
*1777 NAND2X1_38
*1778 MUX2X1_39
*1779 MUX2X1_40
*1780 MUX2X1_37
*1781 MUX2X1_36
*1782 MUX2X1_38