*SPEF "IEEE 1481.1999"
*DESIGN "map9v3"
*DATE "00:32:56 Tuesday February 18, 2025"
*VENDOR "unknown"
*PROGRAM "qrouter"
*VERSION "unknown"
*DESIGN_FLOW "qflow"
*DIVIDER /
*DELIMITER :
*BUS_DELIMITER <>
*T_UNIT 1 PS
*C_UNIT 1 FF
*R_UNIT 1 OHM
*L_UNIT 1 HENRY

*NAME_MAP
*1 _91_
*2 INVX4_1
*3 NAND2X1_1
*4 NAND3X1_12
*5 NAND3X1_2
*6 OAI21X1_11
*7 OAI21X1_5
*8 OAI21X1_7
*9 OAI21X1_4
*10 OAI21X1_10
*11 OAI21X1_9
*12 OAI21X1_8
*13 OAI21X1_6
*14 OAI21X1_13
*15 OAI21X1_15
*16 AOI21X1_12
*17 OAI21X1_12
*18 OAI21X1_22
*19 state[0]
*20 DFFSR_1
*21 NAND3X1_10
*22 OAI21X1_26
*23 OAI21X1_28
*24 AOI21X1_11
*25 INVX4_1
*26 OAI21X1_20
*27 NAND3X1_4
*28 OAI21X1_17
*29 OAI21X1_14
*30 OAI21X1_21
*31 AOI21X1_14
*32 AOI22X1_1
*33 _103_
*34 NAND3X1_2
*35 MUX2X1_1
*36 MUX2X1_2
*37 NOR2X1_4
*38 MUX2X1_4
*39 AOI21X1_1
*40 MUX2X1_3
*41 MUX2X1_5
*42 MUX2X1_6
*43 MUX2X1_7
*44 AOI21X1_2
*45 NOR2X1_5
*46 clock_bF_buf4
*47 CLKBUF1_1
*48 DFFSR_5
*49 DFFSR_2
*50 DFFSR_6
*51 DFFSR_1
*52 DFFSR_7
*53 DFFSR_33
*54 DFFSR_14
*55 clock_bF_buf3
*56 CLKBUF1_2
*57 DFFSR_30
*58 DFFSR_4
*59 DFFSR_16
*60 DFFSR_17
*61 DFFSR_25
*62 DFFSR_29
*63 DFFSR_20
*64 clock_bF_buf2
*65 CLKBUF1_3
*66 DFFSR_21
*67 DFFSR_23
*68 DFFSR_32
*69 DFFSR_24
*70 DFFSR_31
*71 DFFSR_22
*72 DFFSR_9
*73 _8__bF_buf4
*74 BUFX4_5
*75 DFFSR_16
*76 DFFSR_20
*77 DFFSR_22
*78 DFFSR_31
*79 DFFSR_24
*80 DFFSR_32
*81 DFFSR_9
*82 _8__bF_buf3
*83 BUFX4_6
*84 DFFSR_11
*85 DFFSR_8
*86 DFFSR_10
*87 DFFSR_12
*88 DFFSR_13
*89 DFFSR_21
*90 DFFSR_23
*91 _8__bF_buf2
*92 BUFX4_7
*93 DFFSR_4
*94 DFFSR_5
*95 DFFSR_15
*96 DFFSR_30
*97 DFFSR_17
*98 DFFSR_25
*99 DFFSR_29
*100 state[3]
*101 DFFSR_4
*102 NAND3X1_11
*103 NAND3X1_5
*104 AOI22X1_2
*105 INVX8_1
*106 OAI21X1_1
*107 OAI21X1_3
*108 OAI21X1_4
*109 clock_bF_buf1
*110 CLKBUF1_4
*111 DFFSR_26
*112 DFFSR_3
*113 DFFSR_19
*114 DFFSR_18
*115 DFFSR_27
*116 DFFSR_28
*117 clock_bF_buf0
*118 CLKBUF1_5
*119 DFFSR_11
*120 DFFSR_8
*121 DFFSR_10
*122 DFFSR_12
*123 DFFSR_13
*124 DFFSR_15
*125 _8__bF_buf1
*126 BUFX4_8
*127 DFFSR_28
*128 DFFSR_26
*129 DFFSR_3
*130 DFFSR_19
*131 DFFSR_18
*132 DFFSR_27
*133 _8__bF_buf0
*134 BUFX4_9
*135 DFFSR_2
*136 DFFSR_6
*137 DFFSR_7
*138 DFFSR_1
*139 DFFSR_33
*140 DFFSR_14
*141 clock
*142 CLKBUF1_1
*143 CLKBUF1_4
*144 CLKBUF1_5
*145 CLKBUF1_2
*146 CLKBUF1_3
*147 _102__bF_buf3
*148 BUFX4_1
*149 OAI21X1_11
*150 OAI21X1_5
*151 AOI21X1_5
*152 OAI21X1_6
*153 AOI21X1_4
*154 _102__bF_buf2
*155 BUFX4_2
*156 OAI21X1_30
*157 NAND3X1_3
*158 NAND3X1_2
*159 AOI21X1_10
*160 OAI21X1_7
*161 _102__bF_buf1
*162 BUFX4_3
*163 AOI21X1_7
*164 OAI21X1_8
*165 OAI21X1_9
*166 AOI21X1_8
*167 AOI21X1_6
*168 _8_
*169 INVX8_2
*170 BUFX4_9
*171 BUFX4_8
*172 BUFX4_7
*173 BUFX4_6
*174 BUFX4_5
*175 _111_[4]
*176 DFFSR_12
*177 OAI21X1_25
*178 BUFX2_5
*179 NOR2X1_12
*180 INVX1_26
*181 NOR3X1_1
*182 _102_
*183 INVX8_1
*184 BUFX4_2
*185 BUFX4_3
*186 BUFX4_1
*187 BUFX4_4
*188 _102__bF_buf0
*189 BUFX4_4
*190 OAI21X1_10
*191 AOI21X1_9
*192 NOR2X1_7
*193 AND2X2_1
*194 _111_[2]
*195 DFFSR_10
*196 OAI21X1_19
*197 XOR2X1_1
*198 BUFX2_3
*199 NOR2X1_1
*200 _111_[0]
*201 DFFSR_8
*202 NOR2X1_2
*203 AND2X2_1
*204 BUFX2_1
*205 NOR2X1_7
*206 _111_[5]
*207 DFFSR_13
*208 BUFX2_6
*209 NOR3X1_1
*210 INVX1_28
*211 OAI21X1_25
*212 _111_[6]
*213 DFFSR_14
*214 INVX1_32
*215 AOI22X1_2
*216 NOR3X1_1
*217 BUFX2_7
*218 _111_[7]
*219 DFFSR_15
*220 OAI21X1_30
*221 OAI21X1_1
*222 INVX1_34
*223 BUFX2_8
*224 _114_[0]
*225 DFFSR_16
*226 OAI21X1_4
*227 OAI21X1_11
*228 NOR2X1_4
*229 BUFX2_19
*230 _114_[3]
*231 DFFSR_19
*232 OAI21X1_7
*233 BUFX2_22
*234 INVX1_10
*235 XNOR2X1_2
*236 _114_[4]
*237 DFFSR_20
*238 BUFX2_23
*239 OAI21X1_8
*240 XNOR2X1_2
*241 INVX1_12
*242 _114_[5]
*243 DFFSR_21
*244 XNOR2X1_1
*245 OAI21X1_9
*246 INVX1_14
*247 BUFX2_24
*248 _39_
*249 NAND2X1_2
*250 INVX2_1
*251 NAND2X1_5
*252 NAND3X1_6
*253 AOI21X1_13
*254 _40_
*255 INVX2_1
*256 AOI21X1_12
*257 OAI21X1_18
*258 OAI21X1_16
*259 OAI21X1_14
*260 N[3]
*261 AOI21X1_12
*262 OAI21X1_18
*263 NOR2X1_10
*264 OAI21X1_16
*265 _55_
*266 NAND3X1_5
*267 INVX1_27
*268 AND2X2_2
*269 OAI21X1_25
*270 NOR2X1_12
*271 N[5]
*272 NOR2X1_13
*273 INVX1_25
*274 OAI21X1_24
*275 OAI21X1_21
*276 _66_
*277 NAND3X1_6
*278 NAND2X1_6
*279 INVX1_30
*280 OAI21X1_26
*281 OAI21X1_29
*282 _111_[3]
*283 DFFSR_11
*284 OAI21X1_19
*285 BUFX2_4
*286 NOR2X1_1
*287 _92_
*288 NOR2X1_1
*289 NAND3X1_1
*290 NAND3X1_5
*291 NAND2X1_7
*292 _111_[1]
*293 DFFSR_9
*294 BUFX2_2
*295 INVX1_23
*296 NOR2X1_2
*297 _93_
*298 NOR2X1_2
*299 NAND3X1_5
*300 NAND3X1_1
*301 NAND2X1_7
*302 state[2]
*303 DFFSR_3
*304 NAND3X1_2
*305 DFFSR_5
*306 INVX1_21
*307 _114_[1]
*308 DFFSR_17
*309 INVX1_6
*310 OAI21X1_5
*311 BUFX2_20
*312 _114_[2]
*313 DFFSR_18
*314 BUFX2_21
*315 INVX1_8
*316 OAI21X1_6
*317 _114_[6]
*318 DFFSR_22
*319 INVX1_16
*320 OAI21X1_10
*321 BUFX2_25
*322 _114_[7]
*323 DFFSR_23
*324 XNOR2X1_1
*325 INVX1_18
*326 BUFX2_26
*327 N[1]
*328 NOR2X1_8
*329 INVX1_22
*330 NAND2X1_2
*331 _36_
*332 NOR2X1_7
*333 OAI21X1_12
*334 NOR2X1_9
*335 NAND2X1_3
*336 _43_
*337 NAND2X1_3
*338 INVX1_24
*339 XOR2X1_1
*340 OAI21X1_19
*341 _51_
*342 NOR2X1_10
*343 NAND2X1_5
*344 NAND3X1_6
*345 AOI21X1_13
*346 _52_
*347 NAND2X1_5
*348 NAND3X1_4
*349 OAI21X1_21
*350 OAI21X1_24
*351 _60_
*352 INVX1_26
*353 NOR2X1_11
*354 NAND3X1_8
*355 NAND3X1_7
*356 _70_
*357 INVX1_28
*358 AOI21X1_14
*359 NAND3X1_8
*360 NAND3X1_7
*361 N[7]
*362 OAI21X1_26
*363 INVX1_29
*364 OAI21X1_29
*365 _95_
*366 NAND3X1_1
*367 OAI21X1_30
*368 OAI21X1_1
*369 state[1]
*370 DFFSR_2
*371 AND2X2_4
*372 INVX1_1
*373 state[4]
*374 DFFSR_5
*375 NAND3X1_3
*376 INVX1_2
*377 startbuf[0]
*378 DFFSR_6
*379 INVX1_3
*380 DFFSR_7
*381 _100_
*382 NOR2X1_3
*383 AND2X2_4
*384 OAI21X1_2
*385 _113_[1]
*386 DFFSR_25
*387 INVX1_4
*388 BUFX2_11
*389 _113_[2]
*390 DFFSR_26
*391 INVX1_5
*392 BUFX2_12
*393 _106_
*394 INVX1_6
*395 MUX2X1_1
*396 AOI21X1_10
*397 _113_[3]
*398 DFFSR_27
*399 BUFX2_13
*400 INVX1_7
*401 _108_
*402 INVX1_8
*403 MUX2X1_2
*404 AOI21X1_4
*405 _113_[4]
*406 DFFSR_28
*407 BUFX2_14
*408 INVX1_9
*409 _110_
*410 INVX1_10
*411 MUX2X1_3
*412 AOI21X1_5
*413 _113_[5]
*414 DFFSR_29
*415 BUFX2_15
*416 INVX1_11
*417 _10_
*418 INVX1_12
*419 MUX2X1_4
*420 AOI21X1_6
*421 _113_[6]
*422 DFFSR_30
*423 BUFX2_16
*424 INVX1_13
*425 _12_
*426 INVX1_14
*427 AOI21X1_7
*428 MUX2X1_5
*429 _113_[7]
*430 DFFSR_31
*431 BUFX2_17
*432 INVX1_15
*433 _14_
*434 INVX1_16
*435 AOI21X1_8
*436 MUX2X1_6
*437 _113_[8]
*438 DFFSR_32
*439 BUFX2_18
*440 INVX1_17
*441 _16_
*442 INVX1_18
*443 MUX2X1_7
*444 AOI21X1_9
*445 _113_[0]
*446 DFFSR_24
*447 BUFX2_10
*448 INVX1_19
*449 _19_
*450 XNOR2X1_1
*451 AOI21X1_3
*452 OAI21X1_3
*453 _20_
*454 XNOR2X1_2
*455 AOI21X1_3
*456 OAI21X1_3
*457 _112_
*458 DFFSR_33
*459 BUFX2_9
*460 INVX1_20
*461 N[2]
*462 NOR2X1_8
*463 NAND2X1_2
*464 _42_
*465 INVX1_23
*466 NAND2X1_3
*467 NOR2X1_9
*468 N[4]
*469 OAI21X1_18
*470 NOR2X1_10
*471 _61_
*472 INVX1_27
*473 NAND3X1_8
*474 NOR2X1_11
*475 _63_
*476 NOR2X1_12
*477 OAI21X1_22
*478 AOI21X1_14
*479 N[6]
*480 OAI21X1_24
*481 NOR2X1_13
*482 _72_
*483 INVX1_29
*484 NAND3X1_9
*485 OAI21X1_27
*486 _73_
*487 INVX1_30
*488 OAI21X1_27
*489 NAND3X1_9
*490 _80_
*491 NOR2X1_14
*492 NAND3X1_11
*493 AOI22X1_2
*494 N[8]
*495 INVX1_33
*496 NAND3X1_9
*497 _88_
*498 NAND3X1_11
*499 NAND3X1_12
*500 INVX1_35
*501 _94_
*502 NOR3X1_1
*503 NAND3X1_1
*504 _96_
*505 OAI21X1_1
*506 NAND2X1_1
*507 _7_
*508 NAND2X1_1
*509 DFFSR_4
*510 _97_
*511 INVX1_1
*512 OAI21X1_2
*513 _98_
*514 INVX1_2
*515 OAI21X1_2
*516 _99_
*517 INVX1_3
*518 NOR2X1_3
*519 startbuf[1]
*520 DFFSR_7
*521 NOR2X1_3
*522 _6_
*523 OAI21X1_2
*524 DFFSR_2
*525 _101_
*526 INVX1_4
*527 AOI21X1_1
*528 _104_
*529 NOR2X1_4
*530 AOI21X1_1
*531 _2_[1]
*532 AOI21X1_1
*533 DFFSR_25
*534 _105_
*535 INVX1_5
*536 MUX2X1_1
*537 _2_[2]
*538 MUX2X1_1
*539 DFFSR_26
*540 _107_
*541 INVX1_7
*542 MUX2X1_2
*543 _2_[3]
*544 MUX2X1_2
*545 DFFSR_27
*546 _109_
*547 INVX1_9
*548 MUX2X1_3
*549 _2_[4]
*550 MUX2X1_3
*551 DFFSR_28
*552 _9_
*553 INVX1_11
*554 MUX2X1_4
*555 _2_[5]
*556 MUX2X1_4
*557 DFFSR_29
*558 _11_
*559 INVX1_13
*560 MUX2X1_5
*561 _2_[6]
*562 MUX2X1_5
*563 DFFSR_30
*564 _13_
*565 INVX1_15
*566 MUX2X1_6
*567 _2_[7]
*568 MUX2X1_6
*569 DFFSR_31
*570 _15_
*571 INVX1_17
*572 MUX2X1_7
*573 _2_[8]
*574 MUX2X1_7
*575 DFFSR_32
*576 _17_
*577 INVX1_19
*578 AOI21X1_2
*579 N[0]
*580 NOR2X1_5
*581 _18_
*582 NOR2X1_5
*583 AOI21X1_2
*584 _2_[0]
*585 AOI21X1_2
*586 DFFSR_24
*587 _21_
*588 OAI21X1_3
*589 AOI21X1_3
*590 _22_
*591 AOI21X1_3
*592 NOR2X1_6
*593 _23_
*594 OAI21X1_4
*595 NOR2X1_6
*596 _3_[0]
*597 NOR2X1_6
*598 DFFSR_16
*599 _24_
*600 OAI21X1_5
*601 AOI21X1_4
*602 _3_[2]
*603 AOI21X1_4
*604 DFFSR_18
*605 _25_
*606 OAI21X1_6
*607 AOI21X1_5
*608 _3_[3]
*609 AOI21X1_5
*610 DFFSR_19
*611 _26_
*612 OAI21X1_7
*613 AOI21X1_6
*614 _3_[4]
*615 AOI21X1_6
*616 DFFSR_20
*617 _27_
*618 OAI21X1_8
*619 AOI21X1_7
*620 _3_[5]
*621 AOI21X1_7
*622 DFFSR_21
*623 _28_
*624 OAI21X1_9
*625 AOI21X1_8
*626 _3_[6]
*627 AOI21X1_8
*628 DFFSR_22
*629 _29_
*630 OAI21X1_10
*631 AOI21X1_9
*632 _3_[7]
*633 AOI21X1_9
*634 DFFSR_23
*635 _30_
*636 OAI21X1_11
*637 AOI21X1_10
*638 _3_[1]
*639 AOI21X1_10
*640 DFFSR_17
*641 _31_
*642 INVX1_20
*643 AOI21X1_11
*644 _32_
*645 INVX1_21
*646 NAND3X1_3
*647 _33_
*648 NAND3X1_3
*649 AOI21X1_11
*650 _1_
*651 AOI21X1_11
*652 DFFSR_33
*653 _34_
*654 INVX1_22
*655 OAI21X1_13
*656 _35_
*657 AND2X2_1
*658 OAI21X1_12
*659 _37_
*660 OAI21X1_12
*661 OAI21X1_13
*662 _0_[0]
*663 OAI21X1_13
*664 DFFSR_8
*665 _38_
*666 NOR2X1_8
*667 OAI21X1_14
*668 _41_
*669 OAI21X1_14
*670 NAND2X1_4
*671 _44_
*672 INVX1_24
*673 OAI21X1_15
*674 _45_
*675 NOR2X1_9
*676 OAI21X1_15
*677 _46_
*678 OAI21X1_15
*679 NAND2X1_4
*680 _0_[1]
*681 NAND2X1_4
*682 DFFSR_9
*683 _47_
*684 AOI21X1_12
*685 OAI21X1_16
*686 _48_
*687 OAI21X1_16
*688 OAI21X1_17
*689 _49_
*690 XOR2X1_1
*691 OAI21X1_17
*692 _0_[2]
*693 OAI21X1_17
*694 DFFSR_10
*695 _50_
*696 OAI21X1_18
*697 NAND3X1_4
*698 _53_
*699 NAND3X1_4
*700 OAI21X1_20
*701 _54_
*702 OAI21X1_19
*703 AND2X2_2
*704 _56_
*705 AND2X2_2
*706 OAI21X1_20
*707 _0_[3]
*708 OAI21X1_20
*709 DFFSR_11
*710 _57_
*711 INVX1_25
*712 AOI21X1_13
*713 _58_
*714 AOI21X1_13
*715 OAI21X1_23
*716 _59_
*717 OAI21X1_21
*718 OAI21X1_23
*719 _62_
*720 NOR2X1_11
*721 OAI21X1_22
*722 _64_
*723 OAI21X1_22
*724 OAI21X1_23
*725 _0_[4]
*726 OAI21X1_23
*727 DFFSR_12
*728 _65_
*729 NOR2X1_13
*730 NAND3X1_6
*731 _67_
*732 OAI21X1_24
*733 NAND2X1_6
*734 _68_
*735 NAND2X1_6
*736 AOI22X1_1
*737 _69_
*738 OAI21X1_25
*739 AOI22X1_1
*740 _71_
*741 AOI21X1_14
*742 AOI22X1_1
*743 _0_[5]
*744 AOI22X1_1
*745 DFFSR_13
*746 _74_
*747 OAI21X1_26
*748 INVX1_31
*749 _75_
*750 INVX1_31
*751 OAI21X1_27
*752 _76_
*753 OAI21X1_27
*754 OAI21X1_28
*755 _77_
*756 NAND2X1_7
*757 NOR2X1_14
*758 _78_
*759 INVX1_32
*760 NAND3X1_7
*761 _79_
*762 NAND3X1_7
*763 NOR2X1_14
*764 _81_
*765 NAND3X1_8
*766 AOI22X1_2
*767 _82_
*768 AOI22X1_2
*769 OAI21X1_28
*770 _0_[6]
*771 OAI21X1_28
*772 DFFSR_14
*773 _83_
*774 INVX1_33
*775 OAI21X1_29
*776 _84_
*777 OAI21X1_29
*778 NAND3X1_10
*779 _85_
*780 NAND3X1_9
*781 NAND3X1_10
*782 _86_
*783 NAND3X1_10
*784 AND2X2_3
*785 _87_
*786 INVX1_34
*787 NAND3X1_11
*788 _89_
*789 OAI21X1_30
*790 NAND3X1_12
*791 _90_
*792 NAND3X1_12
*793 AND2X2_3
*794 _0_[7]
*795 AND2X2_3
*796 DFFSR_15
*797 _4_
*798 AND2X2_4
*799 DFFSR_1
*800 _5_
*801 INVX1_35
*802 DFFSR_3
*803 reset
*804 INVX8_2
*805 counter[0]
*806 BUFX2_1
*807 counter[1]
*808 BUFX2_2
*809 counter[2]
*810 BUFX2_3
*811 counter[3]
*812 BUFX2_4
*813 counter[4]
*814 BUFX2_5
*815 counter[5]
*816 BUFX2_6
*817 counter[6]
*818 BUFX2_7
*819 counter[7]
*820 BUFX2_8
*821 done
*822 BUFX2_9
*823 dp[0]
*824 BUFX2_10
*825 dp[1]
*826 BUFX2_11
*827 dp[2]
*828 BUFX2_12
*829 dp[3]
*830 BUFX2_13
*831 dp[4]
*832 BUFX2_14
*833 dp[5]
*834 BUFX2_15
*835 dp[6]
*836 BUFX2_16
*837 dp[7]
*838 BUFX2_17
*839 dp[8]
*840 BUFX2_18
*841 sr[0]
*842 BUFX2_19
*843 sr[1]
*844 BUFX2_20
*845 sr[2]
*846 BUFX2_21
*847 sr[3]
*848 BUFX2_22
*849 sr[4]
*850 BUFX2_23
*851 sr[5]
*852 BUFX2_24
*853 sr[6]
*854 BUFX2_25
*855 sr[7]
*856 BUFX2_26
*857 start
*858 DFFSR_6

*PORTS
*141 I
*260 I
*271 I
*327 I
*361 I
*461 I
*468 I
*479 I
*494 I
*579 I
*803 I
*805 O
*807 O
*809 O
*811 O
*813 O
*815 O
*817 O
*819 O
*821 O
*823 O
*825 O
*827 O
*829 O
*831 O
*833 O
*835 O
*837 O
*839 O
*841 O
*843 O
*845 O
*847 O
*849 O
*851 O
*853 O
*855 O
*857 I

*D_NET *1 0.00422448
*CONN
*I *2:Y O *D INVX4
*I *3:A I *L 0.0177118
*I *4:A I *L 0.0222511
*I *5:B I *L 0.022204
*I *6:C I *L 0.0180101
*I *7:C I *L 0.0180101
*I *8:C I *L 0.0180101
*I *9:C I *L 0.0180101
*I *10:C I *L 0.0180101
*I *11:C I *L 0.0180101
*I *12:C I *L 0.0180101
*I *13:C I *L 0.0180101
*I *14:A I *L 0.0265312
*I *15:C I *L 0.0180101
*I *16:C I *L 0.02277
*I *17:C I *L 0.0180101
*I *18:C I *L 0.0180101
*CAP
1 1_1 0.0005064
2 1_2 0.00034464
3 1_3 2.04e-05
4 1_4 0.000162
5 1_5 0.00033096
6 1_6 8.16e-05
7 1_7 0.00020832
8 1_8 1.344e-05
9 1_9 0.000102
10 1_10 0.00015576
11 1_11 9.6e-06
12 1_12 0.000144
13 1_13 1.344e-05
14 1_14 6.12e-05
15 1_15 9.48e-05
16 1_16 0.0004368
17 1_17 2.04e-05
18 1_18 5.76e-05
19 1_19 6.048e-05
20 1_20 0.00030888
21 1_21 0.00027792
22 1_22 6.12e-05
23 1_23 2.04e-05
24 1_24 0.00016968
25 1_25 8.16e-05
26 1_26 0.00018528
27 1_27 3.36e-05
28 1_28 0.00026208
*RES
1 *2:Y 1_1 5.50667
2 1_1 1_2 3.77333
3 1_2 1_3 0.233333
4 1_3 *3:A 0
5 1_3 1_4 3.5
6 1_4 *4:A 0
7 1_3 1_5 6.86
8 1_5 1_6 0.933333
9 1_6 *5:B 0
10 1_5 1_7 5.78667
11 1_7 1_8 0.373333
12 1_8 1_9 1.16667
13 1_9 *6:C 0
14 1_8 1_10 2.66
15 1_10 *7:C 0
16 1_7 1_11 0.0666667
17 1_11 1_12 1
18 1_12 1_13 0.373333
19 1_13 1_14 0.7
20 1_14 *8:C 0
21 1_13 1_15 1.63333
22 1_15 *9:C 0
23 1_12 1_16 5.2
24 1_16 1_17 0.233333
25 1_17 *10:C 0
26 1_17 1_18 0.373333
27 1_18 *11:C 0
28 1_17 1_19 1.68
29 1_19 *12:C 0
30 1_11 1_20 2.98
31 1_20 *13:C 0
32 1_1 1_21 4.38667
33 1_21 1_22 0.7
34 1_22 1_23 0.233333
35 1_23 *14:A 0
36 1_23 1_24 2.38
37 1_24 1_25 0.933333
38 1_25 *15:C 0
39 1_24 1_26 4.48
40 1_26 *16:C 0
41 1_21 1_27 0.933333
42 1_27 *17:C 0
43 1_1 1_28 7.28
44 1_28 *18:C 0
*END
*D_NET *19 0.0037896
*CONN
*I *20:Q O *D DFFSR
*I *21:A I *L 0.0222511
*I *22:C I *L 0.0180101
*I *23:A I *L 0.0265312
*I *24:C I *L 0.02277
*I *25:A I *L 0.0548793
*I *26:A I *L 0.0265312
*I *27:A I *L 0.0222511
*I *28:A I *L 0.0265312
*I *29:C I *L 0.0180101
*I *30:C I *L 0.0180101
*I *31:C I *L 0.02277
*I *32:A I *L 0.0265618
*CAP
1 19_1 0.00059112
2 19_2 2.04e-05
3 19_3 0.00014928
4 19_4 8.736e-05
5 19_5 0.0001224
6 19_6 8.064e-05
7 19_7 8.16e-05
8 19_8 2.04e-05
9 19_9 0.000462
10 19_10 4.032e-05
11 19_11 0.00017592
12 19_12 0.00056304
13 19_13 2.04e-05
14 19_14 0.00026496
15 19_15 0
16 19_16 0.00012168
17 19_17 0
18 19_18 0.00026352
19 19_19 0.00021504
20 19_20 0.000306
21 19_21 0.000102
22 19_22 0.00010152
*RES
1 *20:Q 19_1 7.42
2 19_1 19_2 0.233333
3 19_2 *21:A 0
4 19_2 19_3 2.14667
5 19_3 19_4 2.42667
6 19_4 19_5 1.4
7 19_5 *22:C 0
8 19_4 19_6 2.24
9 19_6 19_7 0.933333
10 19_7 19_8 0.233333
11 19_8 *23:A 0
12 19_8 19_9 5.83333
13 19_9 *24:C 0
14 19_6 19_10 1.12
15 19_10 19_11 3.22
16 19_11 *25:A 0
17 19_10 19_12 6.44
18 19_12 19_13 0.233333
19 19_13 *26:A 0
20 19_13 19_14 3.36
21 19_14 19_15 0
22 19_15 *27:A 0
23 19_15 19_16 2.38
24 19_16 19_17 0
25 19_17 *28:A 0
26 19_16 19_18 3.45333
27 19_18 *29:C 0
28 19_14 19_19 5.97333
29 19_19 *30:C 0
30 19_3 19_20 3.5
31 19_20 19_21 1.16667
32 19_21 *31:C 0
33 19_20 19_22 1.82
34 19_22 *32:A 0
*END
*D_NET *33 0.00358272
*CONN
*I *34:Y O *D NAND3X1
*I *35:S I *L 0.0295792
*I *36:S I *L 0.0295792
*I *37:B I *L 0.0227534
*I *38:S I *L 0.0295792
*I *39:B I *L 0.0268633
*I *40:S I *L 0.0295792
*I *41:S I *L 0.0295792
*I *42:S I *L 0.0295792
*I *43:S I *L 0.0295792
*I *44:B I *L 0.0268633
*I *45:B I *L 0.0227534
*CAP
1 33_1 0.00041328
2 33_2 0.00020256
3 33_3 0.00014904
4 33_4 2.04e-05
5 33_5 0.00020832
6 33_6 0
7 33_7 0.00042816
8 33_8 4.08e-05
9 33_9 2.04e-05
10 33_10 0.0002988
11 33_11 4.032e-05
12 33_12 0.0002856
13 33_13 2.04e-05
14 33_14 0.00064344
15 33_15 0
16 33_16 0.00027744
17 33_17 2.04e-05
18 33_18 0.00035496
19 33_19 0.0001584
*RES
1 *34:Y 33_1 4.34667
2 33_1 33_2 4.29333
3 33_2 33_3 2.47333
4 33_3 33_4 0.233333
5 33_4 *35:S 0
6 33_4 33_5 5.78667
7 33_5 33_6 0
8 33_6 *36:S 0
9 33_5 33_7 5.22667
10 33_7 33_8 0.466667
11 33_8 33_9 0.233333
12 33_9 *37:B 0
13 33_9 33_10 3.96667
14 33_10 *38:S 0
15 33_7 33_11 1.12
16 33_11 *39:B 0
17 33_2 33_12 3.26667
18 33_12 *40:S 0
19 33_1 33_13 0.233333
20 33_13 *41:S 0
21 33_13 33_14 10.8733
22 33_14 33_15 0
23 33_15 *42:S 0
24 33_15 33_16 3.17333
25 33_16 33_17 0.233333
26 33_17 *43:S 0
27 33_17 33_18 6.86
28 33_18 *44:B 0
29 33_18 33_19 1.02667
30 33_19 *45:B 0
*END
*D_NET *46 0.00156672
*CONN
*I *47:Y O *D CLKBUF1
*I *48:CLK I *L 0.0134469
*I *49:CLK I *L 0.0134469
*I *50:CLK I *L 0.0134469
*I *51:CLK I *L 0.0134469
*I *52:CLK I *L 0.0134469
*I *53:CLK I *L 0.0134469
*I *54:CLK I *L 0.0134469
*CAP
1 46_1 0.0001428
2 46_2 0.0003264
3 46_3 5.376e-05
4 46_4 0
5 46_5 4.032e-05
6 46_6 0.0001224
7 46_7 0.00019488
8 46_8 0
9 46_9 0.0001224
10 46_10 0.00037368
11 46_11 2.04e-05
12 46_12 0.00016968
*RES
1 *47:Y 46_1 1.63333
2 46_1 46_2 3.73333
3 46_2 *48:CLK 0
4 46_1 46_3 1.49333
5 46_3 46_4 0
6 46_4 *49:CLK 0
7 46_3 46_5 1.12
8 46_5 46_6 1.4
9 46_6 *50:CLK 0
10 46_5 46_7 5.41333
11 46_7 46_8 0
12 46_8 *51:CLK 0
13 46_8 46_9 1.4
14 46_9 *52:CLK 0
15 46_8 46_10 4.71333
16 46_10 46_11 0.233333
17 46_11 *53:CLK 0
18 46_11 46_12 2.38
19 46_12 *54:CLK 0
*END
*D_NET *55 0.00216216
*CONN
*I *56:Y O *D CLKBUF1
*I *57:CLK I *L 0.0134469
*I *58:CLK I *L 0.0134469
*I *59:CLK I *L 0.0134469
*I *60:CLK I *L 0.0134469
*I *61:CLK I *L 0.0134469
*I *62:CLK I *L 0.0134469
*I *63:CLK I *L 0.0134469
*CAP
1 55_1 0.000204
2 55_2 0.00017616
3 55_3 0
4 55_4 0.0003936
5 55_5 5.376e-05
6 55_6 5.376e-05
7 55_7 0.000408
8 55_8 4.08e-05
9 55_9 0.00017496
10 55_10 4.08e-05
11 55_11 0.00042048
12 55_12 2.04e-05
13 55_13 0.00017544
*RES
1 *56:Y 55_1 2.33333
2 55_1 55_2 2.89333
3 55_2 55_3 0
4 55_3 *57:CLK 0
5 55_2 55_4 5.6
6 55_4 *58:CLK 0
7 55_1 55_5 1.49333
8 55_5 55_6 1.49333
9 55_6 *59:CLK 0
10 55_5 55_7 4.66667
11 55_7 55_8 0.466667
12 55_8 *60:CLK 0
13 55_7 55_9 4.52667
14 55_9 55_10 0.466667
15 55_10 *61:CLK 0
16 55_9 55_11 6.34667
17 55_11 55_12 0.233333
18 55_12 *62:CLK 0
19 55_12 55_13 2.00667
20 55_13 *63:CLK 0
*END
*D_NET *64 0.00171504
*CONN
*I *65:Y O *D CLKBUF1
*I *66:CLK I *L 0.0134469
*I *67:CLK I *L 0.0134469
*I *68:CLK I *L 0.0134469
*I *69:CLK I *L 0.0134469
*I *70:CLK I *L 0.0134469
*I *71:CLK I *L 0.0134469
*I *72:CLK I *L 0.0134469
*CAP
1 64_1 9.408e-05
2 64_2 0
3 64_3 0.000294
4 64_4 2.016e-05
5 64_5 6.12e-05
6 64_6 0.00020904
7 64_7 0.0001224
8 64_8 0.0001344
9 64_9 0
10 64_10 0.0003804
11 64_11 2.04e-05
12 64_12 0.00017544
13 64_13 0.00020352
*RES
1 *65:Y 64_1 2.61333
2 64_1 64_2 0
3 64_2 *66:CLK 0
4 64_2 64_3 3.5
5 64_3 64_4 0.56
6 64_4 64_5 0.7
7 64_5 *67:CLK 0
8 64_4 64_6 4.80667
9 64_6 64_7 1.4
10 64_7 *68:CLK 0
11 64_6 64_8 3.73333
12 64_8 64_9 0
13 64_9 *69:CLK 0
14 64_9 64_10 4.9
15 64_10 64_11 0.233333
16 64_11 *70:CLK 0
17 64_11 64_12 2.00667
18 64_12 *71:CLK 0
19 64_3 64_13 2.98667
20 64_13 *72:CLK 0
*END
*D_NET *73 0.00148152
*CONN
*I *74:Y O *D BUFX4
*I *75:R I *L 0.0357813
*I *76:R I *L 0.0357813
*I *77:R I *L 0.0357813
*I *78:R I *L 0.0357813
*I *79:R I *L 0.0357813
*I *80:R I *L 0.0357813
*I *81:R I *L 0.0357813
*CAP
1 73_1 0.00024816
2 73_2 0.0001008
3 73_3 0.00029784
4 73_4 0.000204
5 73_5 0.0002448
6 73_6 2.04e-05
7 73_7 0.00028488
8 73_8 8.064e-05
*RES
1 *74:Y 73_1 4.38667
2 73_1 *75:R 0
3 73_1 73_2 2.8
4 73_2 *76:R 0
5 73_2 73_3 3.40667
6 73_3 *77:R 0
7 73_3 73_4 2.33333
8 73_4 *78:R 0
9 73_4 73_5 2.8
10 73_5 73_6 0.233333
11 73_6 *79:R 0
12 73_6 73_7 4.24667
13 73_7 *80:R 0
14 73_7 73_8 2.24
15 73_8 *81:R 0
*END
*D_NET *82 0.00158328
*CONN
*I *83:Y O *D BUFX4
*I *84:R I *L 0.0357813
*I *85:R I *L 0.0357813
*I *86:R I *L 0.0357813
*I *87:R I *L 0.0357813
*I *88:R I *L 0.0357813
*I *89:R I *L 0.0357813
*I *90:R I *L 0.0357813
*CAP
1 82_1 0.00021048
2 82_2 2.04e-05
3 82_3 0.000204
4 82_4 2.04e-05
5 82_5 0.00016128
6 82_6 0
7 82_7 0.0002448
8 82_8 0.00022848
9 82_9 0.000216
10 82_10 0.00027744
*RES
1 *83:Y 82_1 2.84667
2 82_1 82_2 0.233333
3 82_2 *84:R 0
4 82_2 82_3 2.33333
5 82_3 82_4 0.233333
6 82_4 *85:R 0
7 82_4 82_5 4.48
8 82_5 82_6 0
9 82_6 *86:R 0
10 82_6 82_7 2.8
11 82_7 *87:R 0
12 82_5 82_8 2.14667
13 82_8 *88:R 0
14 82_4 82_9 4.66667
15 82_9 *89:R 0
16 82_9 82_10 3.17333
17 82_10 *90:R 0
*END
*D_NET *91 0.00120096
*CONN
*I *92:Y O *D BUFX4
*I *93:R I *L 0.0357813
*I *94:R I *L 0.0357813
*I *95:R I *L 0.0357813
*I *96:R I *L 0.0357813
*I *97:R I *L 0.0357813
*I *98:R I *L 0.0357813
*I *99:R I *L 0.0357813
*CAP
1 91_1 3.36e-05
2 91_2 6.096e-05
3 91_3 0.000204
4 91_4 0.0002244
5 91_5 2.04e-05
6 91_6 0.0001008
7 91_7 0.0002448
8 91_8 6.72e-05
9 91_9 0.0002448
*RES
1 *92:Y 91_1 0.933333
2 91_1 91_2 1.02667
3 91_2 *93:R 0
4 91_2 91_3 2.33333
5 91_3 *94:R 0
6 91_1 91_4 2.56667
7 91_4 91_5 0.233333
8 91_5 *95:R 0
9 91_5 91_6 2.8
10 91_6 *96:R 0
11 91_6 91_7 2.8
12 91_7 *97:R 0
13 91_7 91_8 1.86667
14 91_8 *98:R 0
15 91_8 91_9 2.8
16 91_9 *99:R 0
*END
*D_NET *100 0.00151416
*CONN
*I *101:Q O *D DFFSR
*I *102:A I *L 0.0222511
*I *103:A I *L 0.0222511
*I *104:A I *L 0.0265618
*I *105:A I *L 0.109759
*I *106:C I *L 0.0180101
*I *107:C I *L 0.0180101
*I *108:A I *L 0.0265312
*CAP
1 100_1 0
2 100_2 0.0002184
3 100_3 2.688e-05
4 100_4 6.72e-05
5 100_5 0.0003876
6 100_6 6.12e-05
7 100_7 8.4e-06
8 100_8 0.00012144
9 100_9 0.00011424
10 100_10 8.4e-06
11 100_11 0.00026424
12 100_12 2.04e-05
13 100_13 0.00021576
*RES
1 *101:Q 100_1 0
2 100_1 100_2 6.06667
3 100_2 100_3 0.746667
4 100_3 100_4 1.86667
5 100_4 *102:A 0
6 100_3 100_5 4.43333
7 100_5 100_6 0.7
8 100_6 *103:A 0
9 100_5 100_7 0.233333
10 100_7 100_8 2.70667
11 100_8 *104:A 0
12 100_7 100_9 3.17333
13 100_9 *105:A 0
14 100_2 100_10 0.233333
15 100_10 *106:C 0
16 100_1 100_11 4.34
17 100_11 100_12 0.233333
18 100_12 *107:C 0
19 100_12 100_13 4.99333
20 100_13 *108:A 0
*END
*D_NET *109 0.00156744
*CONN
*I *110:Y O *D CLKBUF1
*I *111:CLK I *L 0.0134469
*I *112:CLK I *L 0.0134469
*I *113:CLK I *L 0.0134469
*I *114:CLK I *L 0.0134469
*I *115:CLK I *L 0.0134469
*I *116:CLK I *L 0.0134469
*CAP
1 109_1 0.0002124
2 109_2 5.376e-05
3 109_3 0
4 109_4 8.064e-05
5 109_5 0.0003264
6 109_6 0.00014784
7 109_7 0
8 109_8 0.00011448
9 109_9 0.0001224
10 109_10 0.00036696
11 109_11 0.00014256
*RES
1 *110:Y 109_1 2.56667
2 109_1 109_2 1.49333
3 109_2 109_3 0
4 109_3 *111:CLK 0
5 109_2 109_4 2.24
6 109_4 109_5 3.73333
7 109_5 *112:CLK 0
8 109_4 109_6 4.10667
9 109_6 109_7 0
10 109_7 *113:CLK 0
11 109_6 109_8 2.84667
12 109_8 109_9 1.4
13 109_9 *114:CLK 0
14 109_8 109_10 4.52667
15 109_10 *115:CLK 0
16 109_1 109_11 1.96
17 109_11 *116:CLK 0
*END
*D_NET *117 0.00161304
*CONN
*I *118:Y O *D CLKBUF1
*I *119:CLK I *L 0.0134469
*I *120:CLK I *L 0.0134469
*I *121:CLK I *L 0.0134469
*I *122:CLK I *L 0.0134469
*I *123:CLK I *L 0.0134469
*I *124:CLK I *L 0.0134469
*CAP
1 117_1 0.000108
2 117_2 2.688e-05
3 117_3 7.104e-05
4 117_4 0
5 117_5 8.064e-05
6 117_6 0.000168
7 117_7 0
8 117_8 0.00037944
9 117_9 0.00049584
10 117_10 0.0002832
*RES
1 *118:Y 117_1 2.33333
2 117_1 117_2 0.746667
3 117_2 *119:CLK 0
4 117_1 117_3 0.773333
5 117_3 117_4 0
6 117_4 *120:CLK 0
7 117_3 117_5 2.24
8 117_5 117_6 4.66667
9 117_6 117_7 0
10 117_7 *121:CLK 0
11 117_7 117_8 4.34
12 117_8 *122:CLK 0
13 117_7 117_9 6.44
14 117_9 *123:CLK 0
15 117_5 117_10 2.66667
16 117_10 *124:CLK 0
*END
*D_NET *125 0.001398
*CONN
*I *126:Y O *D BUFX4
*I *127:R I *L 0.0357813
*I *128:R I *L 0.0357813
*I *129:R I *L 0.0357813
*I *130:R I *L 0.0357813
*I *131:R I *L 0.0357813
*I *132:R I *L 0.0357813
*CAP
1 125_1 2.04e-05
2 125_2 0.0001428
3 125_3 0.0001692
4 125_4 0.00029784
5 125_5 0.00031896
6 125_6 0.000204
7 125_7 0.0002448
*RES
1 *126:Y 125_1 0.233333
2 125_1 125_2 1.63333
3 125_2 *127:R 0
4 125_1 125_3 3.03333
5 125_3 *128:R 0
6 125_3 125_4 3.40667
7 125_4 *129:R 0
8 125_4 125_5 4.52667
9 125_5 *130:R 0
10 125_5 125_6 2.33333
11 125_6 *131:R 0
12 125_5 125_7 2.8
13 125_7 *132:R 0
*END
*D_NET *133 0.00121968
*CONN
*I *134:Y O *D BUFX4
*I *135:R I *L 0.0357813
*I *136:R I *L 0.0357813
*I *137:R I *L 0.0357813
*I *138:S I *L 0.0323255
*I *139:R I *L 0.0357813
*I *140:R I *L 0.0357813
*CAP
1 133_1 0.00015408
2 133_2 0
3 133_3 0.00024432
4 133_4 0.00010752
5 133_5 0
6 133_6 0.0002244
7 133_7 2.04e-05
8 133_8 0.00026496
9 133_9 0.000204
*RES
1 *134:Y 133_1 1.77333
2 133_1 133_2 0
3 133_2 *135:R 0
4 133_2 133_3 3.45333
5 133_3 *136:R 0
6 133_3 133_4 2.98667
7 133_4 133_5 0
8 133_5 *137:R 0
9 133_5 133_6 2.56667
10 133_6 133_7 0.233333
11 133_7 *138:S 0
12 133_7 133_8 3.36
13 133_8 *139:R 0
14 133_8 133_9 2.33333
15 133_9 *140:R 0
*END
*D_NET *141 0.00178344
*CONN
*P *141 O
*I *142:A I *L 0.0549205
*I *143:A I *L 0.0549205
*I *144:A I *L 0.0549205
*I *145:A I *L 0.0549205
*I *146:A I *L 0.0549205
*CAP
1 141_1 0.00021624
2 141_2 2.04e-05
3 141_3 0.00052176
4 141_4 2.04e-05
5 141_5 0.000696
6 141_6 2.04e-05
7 141_7 5.76e-05
8 141_8 0.00023064
*RES
1 *141 141_1 2.47333
2 141_1 141_2 0.233333
3 141_2 *142:A 0
4 141_2 141_3 6.62667
5 141_3 141_4 0.233333
6 141_4 *143:A 0
7 141_4 141_5 8.06667
8 141_5 141_6 0.233333
9 141_6 *144:A 0
10 141_6 141_7 0.373333
11 141_7 *145:A 0
12 141_6 141_8 3.40667
13 141_8 *146:A 0
*END
*D_NET *147 0.00160536
*CONN
*I *148:Y O *D BUFX4
*I *149:B I *L 0.0270702
*I *150:B I *L 0.0270702
*I *151:A I *L 0.0265613
*I *152:B I *L 0.0270702
*I *153:A I *L 0.0265613
*CAP
1 147_1 0.00052872
2 147_2 6.048e-05
3 147_3 0.0001152
4 147_4 0.00048144
5 147_5 2.04e-05
6 147_6 6.72e-05
7 147_7 0
8 147_8 0.00033192
*RES
1 *148:Y 147_1 7.62
2 147_1 147_2 1.68
3 147_2 *149:B 0
4 147_2 147_3 0.746667
5 147_3 *150:B 0
6 147_1 147_4 5.50667
7 147_4 147_5 0.233333
8 147_5 *151:A 0
9 147_5 147_6 1.86667
10 147_6 147_7 0
11 147_7 *152:B 0
12 147_7 147_8 5.55333
13 147_8 *153:A 0
*END
*D_NET *154 0.00215424
*CONN
*I *155:Y O *D BUFX4
*I *156:A I *L 0.0265312
*I *157:B I *L 0.022204
*I *158:C I *L 0.0226301
*I *159:A I *L 0.0265613
*I *160:B I *L 0.0270702
*CAP
1 154_1 0.0002736
2 154_2 0.0002772
3 154_3 2.04e-05
4 154_4 0.00025776
5 154_5 0.00044064
6 154_6 0.0001272
7 154_7 0.00022224
8 154_8 2.04e-05
9 154_9 0.0005148
*RES
1 *155:Y 154_1 3.26667
2 154_1 154_2 5.36667
3 154_2 154_3 0.233333
4 154_3 *156:A 0
5 154_3 154_4 3.82667
6 154_4 *157:B 0
7 154_1 154_5 6.90667
8 154_5 154_6 1.02667
9 154_6 *158:C 0
10 154_5 154_7 5.50667
11 154_7 154_8 0.233333
12 154_8 *159:A 0
13 154_8 154_9 5.46
14 154_9 *160:B 0
*END
*D_NET *161 0.00090672
*CONN
*I *162:Y O *D BUFX4
*I *163:A I *L 0.0265613
*I *164:B I *L 0.0270702
*I *165:B I *L 0.0270702
*I *166:A I *L 0.0265613
*I *167:A I *L 0.0265613
*CAP
1 161_1 0.00019632
2 161_2 6.12e-05
3 161_3 6.048e-05
4 161_4 6.12e-05
5 161_5 0.0001152
6 161_6 0.00011448
7 161_7 6.12e-05
8 161_8 0.00023664
*RES
1 *162:Y 161_1 3.45333
2 161_1 161_2 0.7
3 161_2 *163:A 0
4 161_1 161_3 1.68
5 161_3 161_4 0.7
6 161_4 *164:B 0
7 161_4 161_5 0.746667
8 161_5 *165:B 0
9 161_3 161_6 2.84667
10 161_6 161_7 0.7
11 161_7 *166:A 0
12 161_6 161_8 2.70667
13 161_8 *167:A 0
*END
*D_NET *168 0.0007236
*CONN
*I *169:Y O *D INVX8
*I *170:A I *L 0.0204034
*I *171:A I *L 0.0204034
*I *172:A I *L 0.0204034
*I *173:A I *L 0.0204034
*I *174:A I *L 0.0204034
*CAP
1 168_1 0.00010824
2 168_2 0
3 168_3 5.76e-05
4 168_4 0.00022848
5 168_5 2.688e-05
6 168_6 0.0002016
7 168_7 2.688e-05
8 168_8 7.392e-05
*RES
1 *169:Y 168_1 2.00667
2 168_1 168_2 0
3 168_2 *170:A 0
4 168_2 168_3 0.373333
5 168_3 *171:A 0
6 168_1 168_4 2.14667
7 168_4 168_5 0.746667
8 168_5 *172:A 0
9 168_4 168_6 1.4
10 168_6 168_7 0.746667
11 168_7 *173:A 0
12 168_6 168_8 2.05333
13 168_8 *174:A 0
*END
*D_NET *175 0.00100104
*CONN
*I *176:Q O *D DFFSR
*I *177:A I *L 0.0265312
*I *178:A I *L 0.0134147
*I *179:A I *L 0.0222369
*I *180:A I *L 0.0134094
*I *181:B I *L 0.0311174
*CAP
1 175_1 0.0004044
2 175_2 2.688e-05
3 175_3 4.056e-05
4 175_4 4.08e-05
5 175_5 0.00019584
6 175_6 0.0001224
7 175_7 7.392e-05
8 175_8 4.704e-05
9 175_9 4.92e-05
*RES
1 *176:Q 175_1 4.34
2 175_1 175_2 0.746667
3 175_2 175_3 0.793333
4 175_3 175_4 0.466667
5 175_4 *177:A 0
6 175_3 175_5 2.24
7 175_5 *178:A 0
8 175_2 175_6 1.4
9 175_6 *179:A 0
10 175_1 175_7 2.05333
11 175_7 175_8 1.30667
12 175_8 *180:A 0
13 175_7 175_9 0.7
14 175_9 *181:B 0
*END
*D_NET *182 0.00064008
*CONN
*I *183:Y O *D INVX8
*I *184:A I *L 0.0204034
*I *185:A I *L 0.0204034
*I *186:A I *L 0.0204034
*I *187:A I *L 0.0204034
*CAP
1 182_1 8.112e-05
2 182_2 4.08e-05
3 182_3 9.408e-05
4 182_4 4.08e-05
5 182_5 2.688e-05
6 182_6 9.84e-05
7 182_7 0.000258
*RES
1 *183:Y 182_1 1.58667
2 182_1 182_2 0.466667
3 182_2 *184:A 0
4 182_1 182_3 2.61333
5 182_3 182_4 0.466667
6 182_4 *185:A 0
7 182_3 182_5 0.746667
8 182_5 182_6 0.84
9 182_6 *186:A 0
10 182_5 182_7 3.5
11 182_7 *187:A 0
*END
*D_NET *188 0.00108408
*CONN
*I *189:Y O *D BUFX4
*I *190:B I *L 0.0270702
*I *191:A I *L 0.0265613
*I *192:B I *L 0.0227534
*I *193:A I *L 0.0180033
*CAP
1 188_1 8.4e-06
2 188_2 0.0001344
3 188_3 8.16e-05
4 188_4 0.0002688
5 188_5 0.00046128
6 188_6 0.0001296
*RES
1 *189:Y 188_1 0.233333
2 188_1 188_2 3.73333
3 188_2 188_3 0.933333
4 188_3 *190:B 0
5 188_2 188_4 2.6
6 188_4 *191:A 0
7 188_1 188_5 6.81333
8 188_5 *192:B 0
9 188_5 188_6 0.84
10 188_6 *193:A 0
*END
*D_NET *194 0.00079344
*CONN
*I *195:Q O *D DFFSR
*I *196:A I *L 0.0265312
*I *197:B I *L 0.0524749
*I *198:A I *L 0.0134147
*I *199:B I *L 0.0227534
*CAP
1 194_1 0.0001008
2 194_2 0.00024456
3 194_3 2.04e-05
4 194_4 5.76e-05
5 194_5 0.00023088
6 194_6 0.0001392
*RES
1 *195:Q 194_1 2.8
2 194_1 194_2 3.12667
3 194_2 194_3 0.233333
4 194_3 *196:A 0
5 194_3 194_4 0.373333
6 194_4 *197:B 0
7 194_3 194_5 3.08
8 194_5 *198:A 0
9 194_1 194_6 1.30667
10 194_6 *199:B 0
*END
*D_NET *200 0.00046008
*CONN
*I *201:Q O *D DFFSR
*I *202:B I *L 0.0227534
*I *203:B I *L 0.0177358
*I *204:A I *L 0.0134147
*I *205:A I *L 0.0222369
*CAP
1 200_1 0.0001428
2 200_2 4.08e-05
3 200_3 4.032e-05
4 200_4 4.08e-05
5 200_5 8.112e-05
6 200_6 2.04e-05
7 200_7 9.384e-05
*RES