*SPEF "IEEE 1481.1999"
*DESIGN "counter"
*DATE "19:10:14 Monday March 17, 2025"
*VENDOR "unknown"
*PROGRAM "qrouter"
*VERSION "unknown"
*DESIGN_FLOW "qflow"
*DIVIDER /
*DELIMITER :
*BUS_DELIMITER <>
*T_UNIT 1 PS
*C_UNIT 1 FF
*R_UNIT 1 OHM
*L_UNIT 1 HENRY

*NAME_MAP
*1 _5_[0]
*2 DFFSR_1
*3 XOR2X1_1
*4 AOI21X1_1
*5 NAND3X1_1
*6 BUFX2_1
*7 INVX1_1
*8 _1_
*9 INVX2_1
*10 DFFSR_3
*11 DFFSR_1
*12 DFFSR_4
*13 DFFSR_2
*14 _5_[1]
*15 DFFSR_2
*16 AOI21X1_1
*17 NAND3X1_1
*18 BUFX2_2
*19 XOR2X1_1
*20 clk
*21 DFFSR_2
*22 DFFSR_3
*23 DFFSR_4
*24 DFFSR_1
*25 _5_[2]
*26 DFFSR_3
*27 AOI21X1_1
*28 NAND3X1_1
*29 BUFX2_3
*30 _2_
*31 NAND3X1_1
*32 INVX1_2
*33 XNOR2X1_1
*34 _5_[3]
*35 DFFSR_4
*36 BUFX2_4
*37 XNOR2X1_1
*38 _4_
*39 AOI21X1_1
*40 NOR2X1_1
*41 _3_
*42 INVX1_2
*43 NOR2X1_1
*44 _0_[2]
*45 NOR2X1_1
*46 DFFSR_3
*47 _0_[3]
*48 XNOR2X1_1
*49 DFFSR_4
*50 _0_[0]
*51 INVX1_1
*52 DFFSR_1
*53 rst
*54 INVX2_1
*55 count[0]
*56 BUFX2_1
*57 count[1]
*58 BUFX2_2
*59 count[2]
*60 BUFX2_3
*61 count[3]
*62 BUFX2_4
*63 _0_[1]
*64 XOR2X1_1
*65 DFFSR_2

*PORTS
*20 I
*53 I
*55 O
*57 O
*59 O
*61 O

*D_NET *1 0.00086472
*CONN
*I *2:Q O *D DFFSR
*I *3:A I *L 0.0435889
*I *4:A I *L 0.0265613
*I *5:A I *L 0.0222511
*I *6:A I *L 0.0134147
*I *7:A I *L 0.0134094
*CAP
1 1_1 6.048e-05
2 1_2 0.0001224
3 1_3 2.04e-05
4 1_4 0.00027744
5 1_5 4.08e-05
6 1_6 0.0001584
7 1_7 5.76e-05
8 1_8 0.0001272
*RES
1 *2:Q 1_1 1.68
2 1_1 1_2 1.4
3 1_2 1_3 0.233333
4 1_3 *3:A 0
5 1_3 1_4 3.17333
6 1_4 1_5 0.466667
7 1_5 *4:A 0
8 1_4 1_6 3.17333
9 1_6 *5:A 0
10 1_6 1_7 0.373333
11 1_7 *6:A 0
12 1_1 1_8 1.02667
13 1_8 *7:A 0
*END
*D_NET *8 0.00074544
*CONN
*I *9:Y O *D INVX2
*I *10:R I *L 0.0357813
*I *11:R I *L 0.0357813
*I *12:R I *L 0.0357813
*I *13:R I *L 0.0357813
*CAP
1 8_1 0.0001152
2 8_2 2.688e-05
3 8_3 0.0002448
4 8_4 0.000204
5 8_5 0.00012096
6 8_6 3.36e-05
*RES
1 *9:Y 8_1 0.746667
2 8_1 8_2 0.746667
3 8_2 *10:R 0
4 8_1 8_3 2.8
5 8_3 8_4 2.33333
6 8_4 *11:R 0
7 8_4 8_5 3.36
8 8_5 *12:R 0
9 8_3 8_6 0.933333
10 8_6 *13:R 0
*END
*D_NET *14 0.00079872
*CONN
*I *15:Q O *D DFFSR
*I *16:B I *L 0.0268633
*I *17:B I *L 0.022204
*I *18:A I *L 0.0134147
*I *19:B I *L 0.0524749
*CAP
1 14_1 0.0003312
2 14_2 4.08e-05
3 14_3 6.744e-05
4 14_4 5.376e-05
5 14_5 0
6 14_6 4.032e-05
7 14_7 0.0002652
*RES
1 *15:Q 14_1 3.36
2 14_1 14_2 0.466667
3 14_2 *16:B 0
4 14_1 14_3 1.54
5 14_3 14_4 1.49333
6 14_4 14_5 0
7 14_5 *17:B 0
8 14_4 14_6 1.12
9 14_6 *18:A 0
10 14_3 14_7 3.03333
11 14_7 *19:B 0
*END
*D_NET *20 0.00104904
*CONN
*P *20 O
*I *21:CLK I *L 0.0134469
*I *22:CLK I *L 0.0134469
*I *23:CLK I *L 0.0134469
*I *24:CLK I *L 0.0134469
*CAP
1 20_1 0.00020976
2 20_2 4.704e-05
3 20_3 0
4 20_4 0.00037944
5 20_5 0.0002904
6 20_6 0.0001224
*RES
1 *20 20_1 3.82667
2 20_1 20_2 1.30667
3 20_2 20_3 0
4 20_3 *21:CLK 0
5 20_3 20_4 4.34
6 20_4 *22:CLK 0
7 20_3 20_5 6.06667
8 20_5 *23:CLK 0
9 20_1 20_6 1.4
10 20_6 *24:CLK 0
*END
*D_NET *25 0.00034464
*CONN
*I *26:Q O *D DFFSR
*I *27:C I *L 0.02277
*I *28:C I *L 0.0226301
*I *29:A I *L 0.0134147
*CAP
1 25_1 4.032e-05
2 25_2 0.000102
3 25_3 7.392e-05
4 25_4 0
5 25_5 0.0001284
*RES
1 *26:Q 25_1 1.12
2 25_1 25_2 1.16667
3 25_2 *27:C 0
4 25_1 25_3 2.05333
5 25_3 25_4 0
6 25_4 *28:C 0
7 25_3 25_5 2.56667
8 25_5 *29:A 0
*END
*D_NET *30 0.0003852
*CONN
*I *31:Y O *D NAND3X1
*I *32:A I *L 0.0134094
*I *33:A I *L 0.0435905
*CAP
1 30_1 0.000144
2 30_2 0.0002412
*RES
1 *31:Y 30_1 0.933333
2 30_1 *32:A 0
3 30_1 30_2 2.47333
4 30_2 *33:A 0
*END
*D_NET *34 0.00031272
*CONN
*I *35:Q O *D DFFSR
*I *36:A I *L 0.0134147
*I *37:B I *L 0.0524659
*CAP
1 34_1 0.00018312
2 34_2 0.0001296
*RES
1 *35:Q 34_1 2.75333
2 34_1 *36:A 0
3 34_1 34_2 0.84
4 34_2 *37:B 0
*END
*D_NET *38 0.0001584
*CONN
*I *39:Y O *D AOI21X1
*I *40:A I *L 0.0222369
*CAP
1 38_1 0.0001584
*RES
1 *39:Y 38_1 1.02667
2 38_1 *40:A 0
*END
*D_NET *41 5.76e-05
*CONN
*I *42:Y O *D INVX1
*I *43:B I *L 0.0227534
*CAP
1 41_1 5.76e-05
*RES
1 *42:Y 41_1 0.373333
2 41_1 *43:B 0
*END
*D_NET *44 0.0001344
*CONN
*I *45:Y O *D NOR2X1
*I *46:D I *L 0.0135592
*CAP
1 44_1 0.0001344
*RES
1 *45:Y 44_1 3.73333
2 44_1 *46:D 0
*END
*D_NET *47 0.00016296
*CONN
*I *48:Y O *D XNOR2X1
*I *49:D I *L 0.0135592
*CAP
1 47_1 0.00016296
*RES
1 *48:Y 47_1 2.19333
2 47_1 *49:D 0
*END
*D_NET *50 0.00023808
*CONN
*I *51:Y O *D INVX1
*I *52:D I *L 0.0135592
*CAP
1 50_1 0.00023808
*RES
1 *51:Y 50_1 3.54667
2 50_1 *52:D 0
*END
*D_NET *53 8.136e-05
*CONN
*P *53 O
*I *54:A I *L 0.0274396
*CAP
1 53_1 8.136e-05
*RES
1 *53 53_1 1.26
2 53_1 *54:A 0
*END
*D_NET *55 6.048e-05
*CONN
*I *56:Y O *D BUFX2
*P *55 I
*CAP
1 55_1 6.048e-05
*RES
1 *56:Y 55_1 1.68
2 55_1 *55 0
*END
*D_NET *57 4.032e-05
*CONN
*I *58:Y O *D BUFX2
*P *57 I
*CAP
1 57_1 4.032e-05
*RES
1 *58:Y 57_1 1.12
2 57_1 *57 0
*END
*D_NET *59 6.096e-05
*CONN
*I *60:Y O *D BUFX2
*P *59 I
*CAP
1 59_1 6.096e-05
*RES
1 *60:Y 59_1 1.02667
2 59_1 *59 0
*END
*D_NET *61 8.784e-05
*CONN
*I *62:Y O *D BUFX2
*P *61 I
*CAP
1 61_1 8.784e-05
*RES
1 *62:Y 61_1 1.77333
2 61_1 *61 0
*END
*D_NET *63 0.00018216
*CONN
*I *64:Y O *D XOR2X1
*I *65:D I *L 0.0135592
*CAP
1 63_1 0.00018216
*RES
1 *64:Y 63_1 4.06
2 63_1 *65:D 0
*END
