*SPEF "IEEE 1481.1999"
*DESIGN "counter"
*DATE "16:07:50 Wednesday April 02, 2025"
*VENDOR "unknown"
*PROGRAM "qrouter"
*VERSION "unknown"
*DESIGN_FLOW "qflow"
*DIVIDER /
*DELIMITER :
*BUS_DELIMITER <>
*T_UNIT 1 PS
*C_UNIT 1 FF
*R_UNIT 1 OHM
*L_UNIT 1 HENRY

*NAME_MAP
*1 _5_[0]
*2 DFFSR_1
*3 BUFX2_1
*4 XOR2X1_1
*5 NAND3X1_1
*6 AOI21X1_1
*7 INVX1_1
*8 _1_
*9 INVX2_1
*10 DFFSR_3
*11 DFFSR_4
*12 DFFSR_1
*13 DFFSR_2
*14 _5_[1]
*15 DFFSR_2
*16 XOR2X1_1
*17 AOI21X1_1
*18 NAND3X1_1
*19 BUFX2_2
*20 clk
*21 DFFSR_2
*22 DFFSR_3
*23 DFFSR_4
*24 DFFSR_1
*25 _5_[2]
*26 DFFSR_3
*27 AOI21X1_1
*28 NAND3X1_1
*29 BUFX2_3
*30 _2_
*31 NAND3X1_1
*32 XNOR2X1_1
*33 INVX1_2
*34 _5_[3]
*35 DFFSR_4
*36 XNOR2X1_1
*37 BUFX2_4
*38 _4_
*39 AOI21X1_1
*40 NOR2X1_1
*41 _3_
*42 INVX1_2
*43 NOR2X1_1
*44 _0_[2]
*45 NOR2X1_1
*46 DFFSR_3
*47 _0_[3]
*48 XNOR2X1_1
*49 DFFSR_4
*50 _0_[0]
*51 INVX1_1
*52 DFFSR_1
*53 rst
*54 INVX2_1
*55 count[0]
*56 BUFX2_1
*57 count[1]
*58 BUFX2_2
*59 count[2]
*60 BUFX2_3
*61 count[3]
*62 BUFX2_4
*63 _0_[1]
*64 XOR2X1_1
*65 DFFSR_2

*PORTS
*20 I
*53 I
*55 O
*57 O
*59 O
*61 O

*D_NET *1 0.00089808
*CONN
*I *2:Q O *D DFFSR
*I *3:A I *L 0.0134147
*I *4:A I *L 0.0435889
*I *5:A I *L 0.0222511
*I *6:A I *L 0.0265613
*I *7:A I *L 0.0134094
*CAP
1 1_1 0.00039984
2 1_2 3.36e-05
3 1_3 0
4 1_4 2.016e-05
5 1_5 0.00010128
6 1_6 0.0002244
7 1_7 5.76e-05
8 1_8 6.12e-05
*RES
1 *2:Q 1_1 4.57333
2 1_1 1_2 0.933333
3 1_2 1_3 0
4 1_3 *3:A 0
5 1_2 1_4 0.56
6 1_4 1_5 2.14667
7 1_5 *4:A 0
8 1_4 1_6 2.56667
9 1_6 *5:A 0
10 1_6 1_7 0.373333
11 1_7 *6:A 0
12 1_1 1_8 0.7
13 1_8 *7:A 0
*END
*D_NET *8 0.00081912
*CONN
*I *9:Y O *D INVX2
*I *10:R I *L 0.0357813
*I *11:R I *L 0.0357813
*I *12:R I *L 0.0357813
*I *13:R I *L 0.0357813
*CAP
1 8_1 2.04e-05
2 8_2 0.00019584
3 8_3 2.04e-05
4 8_4 0.000204
5 8_5 0.00020928
6 8_6 0.0001692
*RES
1 *9:Y 8_1 0.233333
2 8_1 8_2 2.24
3 8_2 8_3 0.233333
4 8_3 *10:R 0
5 8_3 8_4 2.33333
6 8_4 *11:R 0
7 8_4 8_5 4.48
8 8_5 *12:R 0
9 8_1 8_6 3.03333
10 8_6 *13:R 0
*END
*D_NET *14 0.00060504
*CONN
*I *15:Q O *D DFFSR
*I *16:B I *L 0.0524749
*I *17:B I *L 0.0268633
*I *18:B I *L 0.022204
*I *19:A I *L 0.0134147
*CAP
1 14_1 8.64e-05
2 14_2 0.00013488
3 14_3 0.0002448
4 14_4 9.84e-05
5 14_5 2.016e-05
6 14_6 2.04e-05
*RES
1 *15:Q 14_1 0.56
2 14_1 *16:B 0
3 14_1 14_2 3.08
4 14_2 14_3 2.8
5 14_3 14_4 0.84
6 14_4 *17:B 0
7 14_3 14_5 0.56
8 14_5 *18:B 0
9 14_2 14_6 0.233333
10 14_6 *19:A 0
*END
*D_NET *20 0.00092016
*CONN
*P *20 O
*I *21:CLK I *L 0.0134469
*I *22:CLK I *L 0.0134469
*I *23:CLK I *L 0.0134469
*I *24:CLK I *L 0.0134469
*CAP
1 20_1 0.00013464
2 20_2 2.04e-05
3 20_3 0.00040728
4 20_4 2.04e-05
5 20_5 0.0001224
6 20_6 0
7 20_7 0.00021504
*RES
1 *20 20_1 1.54
2 20_1 20_2 0.233333
3 20_2 *21:CLK 0
4 20_2 20_3 5.64667
5 20_3 20_4 0.233333
6 20_4 *22:CLK 0
7 20_4 20_5 1.4
8 20_5 20_6 0
9 20_6 *23:CLK 0
10 20_6 20_7 5.97333
11 20_7 *24:CLK 0
*END
*D_NET *25 0.00037152
*CONN
*I *26:Q O *D DFFSR
*I *27:C I *L 0.02277
*I *28:C I *L 0.0226301
*I *29:A I *L 0.0134147
*CAP
1 25_1 0.00014112
2 25_2 0.000102
3 25_3 4.704e-05
4 25_4 0
5 25_5 8.136e-05
*RES
1 *26:Q 25_1 3.92
2 25_1 25_2 1.16667
3 25_2 *27:C 0
4 25_1 25_3 1.30667
5 25_3 25_4 0
6 25_4 *28:C 0
7 25_3 25_5 1.26
8 25_5 *29:A 0
*END
*D_NET *30 0.00025056
*CONN
*I *31:Y O *D NAND3X1
*I *32:A I *L 0.0435905
*I *33:A I *L 0.0134094
*CAP
1 30_1 0.00012096
2 30_2 0.0001296
*RES
1 *31:Y 30_1 3.36
2 30_1 *32:A 0
3 30_1 30_2 0.84
4 30_2 *33:A 0
*END
*D_NET *34 0.00043248
*CONN
*I *35:Q O *D DFFSR
*I *36:B I *L 0.0524659
*I *37:A I *L 0.0134147
*CAP
1 34_1 0.000144
2 34_2 0.0002004
3 34_3 8.808e-05
*RES
1 *35:Q 34_1 0.933333
2 34_1 34_2 2.00667
3 34_2 *36:B 0
4 34_1 34_3 1.44667
5 34_3 *37:A 0
*END
*D_NET *38 0.0002736
*CONN
*I *39:Y O *D AOI21X1
*I *40:A I *L 0.0222369
*CAP
1 38_1 0.0002736
*RES
1 *39:Y 38_1 1.77333
2 38_1 *40:A 0
*END
*D_NET *41 5.76e-05
*CONN
*I *42:Y O *D INVX1
*I *43:B I *L 0.0227534
*CAP
1 41_1 5.76e-05
*RES
1 *42:Y 41_1 0.373333
2 41_1 *43:B 0
*END
*D_NET *44 0.00023904
*CONN
*I *45:Y O *D NOR2X1
*I *46:D I *L 0.0135592
*CAP
1 44_1 0.00023904
*RES
1 *45:Y 44_1 5.41333
2 44_1 *46:D 0
*END
*D_NET *47 0.0002772
*CONN
*I *48:Y O *D XNOR2X1
*I *49:D I *L 0.0135592
*CAP
1 47_1 0.0002772
*RES
1 *48:Y 47_1 5.36667
2 47_1 *49:D 0
*END
*D_NET *50 0.00040032
*CONN
*I *51:Y O *D INVX1
*I *52:D I *L 0.0135592
*CAP
1 50_1 0.00040032
*RES
1 *51:Y 50_1 5.78667
2 50_1 *52:D 0
*END
*D_NET *53 4.896e-05
*CONN
*P *53 O
*I *54:A I *L 0.0274396
*CAP
1 53_1 4.896e-05
*RES
1 *53 53_1 0.76
2 53_1 *54:A 0
*END
*D_NET *55 0.00011424
*CONN
*I *56:Y O *D BUFX2
*P *55 I
*CAP
1 55_1 0.00011424
*RES
1 *56:Y 55_1 1.30667
2 55_1 *55 0
*END
*D_NET *57 0.00011424
*CONN
*I *58:Y O *D BUFX2
*P *57 I
*CAP
1 57_1 0.00011424
*RES
1 *58:Y 57_1 1.30667
2 57_1 *57 0
*END
*D_NET *59 0.00014736
*CONN
*I *60:Y O *D BUFX2
*P *59 I
*CAP
1 59_1 0.00014736
*RES
1 *60:Y 59_1 1.58667
2 59_1 *59 0
*END
*D_NET *61 0.00011424
*CONN
*I *62:Y O *D BUFX2
*P *61 I
*CAP
1 61_1 0.00011424
*RES
1 *62:Y 61_1 1.30667
2 61_1 *61 0
*END
*D_NET *63 0.00018216
*CONN
*I *64:Y O *D XOR2X1
*I *65:D I *L 0.0135592
*CAP
1 63_1 0.00018216
*RES
1 *64:Y 63_1 4.06
2 63_1 *65:D 0
*END
